version 3
run plain-0-20250325-12:22:51-21216
attr configname plain
attr datetime 20250325-12:22:51
attr datetimef 20250325-122251
attr experiment plain
attr inifile omnetpp.ini
attr iterationvars ""
attr iterationvarsd ""
attr iterationvarsf ""
attr measurement ""
attr network Scenario
attr processid 21216
attr repetition 0
attr replication #0
attr resultdir results
attr runnumber 0
attr seedset 0
config image-path ../../../../../Frameworks/inet-4.5.4-src/inet4.5/images:../../../../../Frameworks/veins-5.3.1/veins-veins-5.3.1/images
config *.visualizer.osgVisualizer.typename ""
config network Scenario
config sim-time-limit 60s
config debug-on-errors true
config cmdenv-express-mode true
config image-path ../../../../images
config *.node[*].numApps 1
config *.node[*].app[0].typename v2x_communication.veins_inet.VeinsInetSampleApplication
config *.node[*].app[0].interface "\"wlan0\""
config *.node[*].wlan[0].opMode "\"p\""
config *.node[*].wlan[0].radio.typename Ieee80211DimensionalRadio
config *.node[*].wlan[0].radio.bandName "\"5.9 GHz\""
config *.node[*].wlan[0].radio.channelNumber 3
config *.node[*].wlan[0].radio.transmitter.power 20mW
config *.node[*].wlan[0].radio.bandwidth "10 MHz"
config *.node[*].wlan[*].radio.antenna.mobility.typename AttachedMobility
config *.node[*].wlan[*].radio.antenna.mobility.mobilityModule "\"^.^.^.^.mobility\""
config *.node[*].wlan[*].radio.antenna.mobility.offsetX -2.5m
config *.node[*].wlan[*].radio.antenna.mobility.offsetZ 1.5m
config *.node[*].wlan[*].radio.antenna.mobility.constraintAreaMinX 0m
config *.node[*].wlan[*].radio.antenna.mobility.constraintAreaMaxX 0m
config *.node[*].wlan[*].radio.antenna.mobility.constraintAreaMinY 0m
config *.node[*].wlan[*].radio.antenna.mobility.constraintAreaMaxY 0m
config *.node[*].wlan[*].radio.antenna.mobility.constraintAreaMinZ 0m
config *.node[*].wlan[*].radio.antenna.mobility.constraintAreaMaxZ 0m
config *.node[*].ipv4.configurator.typename HostAutoConfigurator
config *.node[*].ipv4.configurator.interfaces "\"wlan0\""
config *.node[*].ipv4.configurator.mcastGroups "\"224.0.0.1\""
config *.node[*].mobility.typename VeinsInetMobility
config *.manager.updateInterval 0.1s
config *.manager.host "\"localhost\""
config *.manager.port 9999
config *.manager.autoShutdown true
config *.manager.launchConfig "xmldoc(\"square.launchd.xml\")"
config *.manager.moduleType "\"v2x_communication.veins_inet.VeinsInetCar\""
config *.physicalEnvironment.config "xmldoc(\"obstacles.xml\")"
config *.radioMedium.obstacleLoss.typename IdealObstacleLoss
config **.vector-recording true

vector 0 Scenario.node[0].lo[0].lo rcvdPkFromHl:vector(packetBytes) ETV
attr interpolationmode none
attr recordingmode vector(packetBytes)
attr source packetReceivedFromUpper
attr title "packets received from higher layer, packetBytes"
vector 1 Scenario.node[0].lo[0].lo passedUpPk:vector(packetBytes) ETV
attr interpolationmode none
attr recordingmode vector(packetBytes)
attr source packetSentToUpper
attr title "packets passed to higher layer, packetBytes"
vector 2 Scenario.node[0].lo[0] packetDropInterfaceDown:vector(packetBytes) ETV
attr interpolationmode none
attr recordingmode vector(packetBytes)
attr source packetDropReasonIsInterfaceDown(packetDropped)
attr title "packet drops: interface down, packetBytes"
vector 3 Scenario.node[0].lo[0] packetDropNoCarrier:vector(packetBytes) ETV
attr interpolationmode none
attr recordingmode vector(packetBytes)
attr source packetDropReasonIsNoCarrier(packetDropped)
attr title "packet drops: no carrier, packetBytes"
vector 4 Scenario.node[0].wlan[0].mac.dcf.channelAccess.pendingQueue queueLength:vector ETV
attr autoWarmupFilter false
attr interpolationmode sample-hold
attr recordingmode vector
attr source "warmup(atomic(constant0(packetPushEnded) + count(packetPushStarted) - count(packetPulled) - count(packetRemoved) - count(packetDropped)))"
attr title "queue length"
attr unit pk
vector 5 Scenario.node[0].wlan[0].mac.dcf.channelAccess.pendingQueue queueBitLength:vector ETV
attr autoWarmupFilter false
attr interpolationmode sample-hold
attr recordingmode vector
attr source "warmup(atomic(constant0(packetPushEnded) + sum(packetLength(packetPushStarted)) - sum(packetLength(packetPulled)) - sum(packetLength(packetRemoved)) - sum(packetLength(packetDropped))))"
attr title "queue bit length"
attr unit b
vector 6 Scenario.node[0].wlan[0].mac.dcf.channelAccess.pendingQueue queueingTime:vector ETV
attr interpolationmode none
attr recordingmode vector
attr source queueingTime(packetPulled)
attr title "queueing times"
attr unit s
vector 7 Scenario.node[0].wlan[0].mac.dcf.channelAccess.pendingQueue incomingPacketLengths:vector ETV
attr interpolationmode none
attr recordingmode vector
attr source packetLength(packetPushStarted)
attr title "incoming packet lengths"
attr unit b
vector 8 Scenario.node[0].wlan[0].mac.dcf.channelAccess.pendingQueue incomingDataRate:vector ETV
attr interpolationmode linear
attr recordingmode vector
attr source throughput(packetPushStarted)
attr title "incoming datarate"
attr unit bps
vector 9 Scenario.node[0].wlan[0].mac.dcf.channelAccess.pendingQueue outgoingPacketLengths:vector ETV
attr interpolationmode none
attr recordingmode vector
attr source packetLength(packetPulled)
attr title "outgoing packet lengths"
attr unit b
vector 10 Scenario.node[0].wlan[0].mac.dcf.channelAccess.pendingQueue outgoingDataRate:vector ETV
attr interpolationmode linear
attr recordingmode vector
attr source throughput(packetPulled)
attr title "outgoing datarate"
attr unit bps
vector 11 Scenario.node[0].wlan[0].mac.dcf.channelAccess.pendingQueue droppedPacketLengthsQueueOverflow:vector ETV
attr interpolationmode none
attr recordingmode vector
attr source packetLength(packetDropReasonIsQueueOverflow(packetDropped))
attr title "dropped packet lengths: queue overflow"
attr unit b
vector 12 Scenario.node[0].wlan[0].mac.dcf.channelAccess.pendingQueue flowQueueingTime:vector ETV
attr interpolationmode none
attr recordingmode vector
attr source queueingTime(demuxFlow(packetPulled))
attr title "flow queueing times"
attr unit s
vector 13 Scenario.node[0].wlan[0].mac.dcf.channelAccess.pendingQueue flowIncomingDataRate:vector ETV
attr interpolationmode linear
attr recordingmode vector
attr source throughput(flowPacketLength(demuxFlow(packetPushStarted)))
attr title "flow specific incoming data rate"
attr unit bps
vector 14 Scenario.node[0].wlan[0].mac.dcf.channelAccess.pendingQueue flowOutgoingDataRate:vector ETV
attr interpolationmode linear
attr recordingmode vector
attr source throughput(flowPacketLength(demuxFlow(packetPulled)))
attr title "flow specific outgoing data rate"
attr unit bps
vector 15 Scenario.node[0].wlan[0].mac.dcf.channelAccess.inProgressFrames queueingTime:vector ETV
attr interpolationmode none
attr recordingmode vector
attr source queueingTime(packetDequeued)
attr title "queueing times"
vector 16 Scenario.node[0].wlan[0].mac.dcf.channelAccess.inProgressFrames queueLength:vector ETV
attr autoWarmupFilter false
attr interpolationmode sample-hold
attr recordingmode vector
attr source "warmup(count(packetEnqueued) - count(packetDequeued))"
attr title "queue length"
vector 17 Scenario.node[0].wlan[0].mac.dcf.channelAccess.contention backoffPeriodGenerated:vector ETV
attr interpolationmode none
attr recordingmode vector
attr title "backoff periods"
vector 18 Scenario.node[0].wlan[0].mac.dcf.channelAccess.contention backoffActive:vector ETV
attr autoWarmupFilter false
attr interpolationmode sample-hold
attr recordingmode vector
attr source warmup(count(backoffStarted)-count(backoffStopped))
attr title "backoff active"
vector 19 Scenario.node[0].wlan[0].mac.dcf.channelAccess.contention stateChanged:vector ETV
attr enum IDLE,DEFER,IFS_AND_BACKOFF
attr interpolationmode none
attr recordingmode vector
attr title "contention state changed"
attr type enum
vector 20 Scenario.node[0].wlan[0].mac.dcf.recipientMacDataService packetDropDuplicateDetected:vector(packetBytes) ETV
attr interpolationmode none
attr recordingmode vector(packetBytes)
attr source packetDropReasonIsDuplicateDetected(packetDropped)
attr title "packet drops: duplicate detected, packetBytes"
vector 21 Scenario.node[0].wlan[0].mac.dcf.recoveryProcedure contentionWindowChanged:vector ETV
attr interpolationmode sample-hold
attr recordingmode vector
attr title "contention window"
vector 22 Scenario.node[0].wlan[0].mac.dcf packetSentToPeer:vector(packetBytes) ETV
attr interpolationmode none
attr recordingmode vector(packetBytes)
attr title "packets sent, packetBytes"
vector 23 Scenario.node[0].wlan[0].mac.dcf packetSentToPeerUnicast:vector(packetBytes) ETV
attr interpolationmode none
attr recordingmode vector(packetBytes)
attr source ieee80211Unicast(packetSentToPeer)
attr title "packets sent: unicast, packetBytes"
vector 24 Scenario.node[0].wlan[0].mac.dcf packetSentToPeerMulticast:vector(packetBytes) ETV
attr interpolationmode none
attr recordingmode vector(packetBytes)
attr source ieee80211Multicast(packetSentToPeer)
attr title "packets sent: multicast, packetBytes"
vector 25 Scenario.node[0].wlan[0].mac.dcf packetSentToPeerBroadcast:vector(packetBytes) ETV
attr interpolationmode none
attr recordingmode vector(packetBytes)
attr source ieee80211Broadcast(packetSentToPeer)
attr title "packets sent: broadcast , packetBytes"
vector 26 Scenario.node[0].wlan[0].mac.dcf packetSentToPeerWithRetry:vector(packetBytes) ETV
attr interpolationmode none
attr recordingmode vector(packetBytes)
attr source ieee80211Retry(packetSentToPeer)
attr title "packets sent: with retry, packetBytes"
vector 27 Scenario.node[0].wlan[0].mac.dcf packetSentToPeerWithoutRetry:vector(packetBytes) ETV
attr interpolationmode none
attr recordingmode vector(packetBytes)
attr source ieee80211NotRetry(packetSentToPeer)
attr title "packets sent: without retry, packetBytes"
vector 28 Scenario.node[0].wlan[0].mac.dcf packetReceivedFromPeer:vector(packetBytes) ETV
attr interpolationmode none
attr recordingmode vector(packetBytes)
attr title "packets received, packetBytes"
vector 29 Scenario.node[0].wlan[0].mac.dcf packetReceivedFromPeerUnicast:vector(packetBytes) ETV
attr interpolationmode none
attr recordingmode vector(packetBytes)
attr source ieee80211Unicast(packetReceivedFromPeer)
attr title "packets received: unicast, packetBytes"
vector 30 Scenario.node[0].wlan[0].mac.dcf packetReceivedFromPeerMulticast:vector(packetBytes) ETV
attr interpolationmode none
attr recordingmode vector(packetBytes)
attr source ieee80211Multicast(packetReceivedFromPeer)
attr title "packets received: multicast, packetBytes"
vector 31 Scenario.node[0].wlan[0].mac.dcf packetReceivedFromPeerBroadcast:vector(packetBytes) ETV
attr interpolationmode none
attr recordingmode vector(packetBytes)
attr source ieee80211Broadcast(packetReceivedFromPeer)
attr title "packets received: broadcast, packetBytes"
vector 32 Scenario.node[0].wlan[0].mac.dcf packetReceivedFromPeerWithRetry:vector(packetBytes) ETV
attr interpolationmode none
attr recordingmode vector(packetBytes)
attr source ieee80211Retry(packetReceivedFromPeer)
attr title "packets received: with retry, packetBytes"
vector 33 Scenario.node[0].wlan[0].mac.dcf packetReceivedFromPeerWithoutRetry:vector(packetBytes) ETV
attr interpolationmode none
attr recordingmode vector(packetBytes)
attr source ieee80211NotRetry(packetReceivedFromPeer)
attr title "packets received: without retry, packetBytes"
vector 34 Scenario.node[0].wlan[0].mac.dcf packetDrop:vector(packetBytes) ETV
attr interpolationmode none
attr recordingmode vector(packetBytes)
attr source packetDropped
attr title "packet drops, packetBytes"
vector 35 Scenario.node[0].wlan[0].mac.dcf packetDropNotAddressedToUs:vector(packetBytes) ETV
attr interpolationmode none
attr recordingmode vector(packetBytes)
attr source packetDropReasonIsNotAddressedToUs(packetDropped)
attr title "packet drops: not addressed to us, packetBytes"
vector 36 Scenario.node[0].wlan[0].mac.dcf packetDropQueueOverflow:vector(packetBytes) ETV
attr interpolationmode none
attr recordingmode vector(packetBytes)
attr source packetDropReasonIsQueueOverflow(packetDropped)
attr title "packet drops: queue overflow, packetBytes"
vector 37 Scenario.node[0].wlan[0].mac.dcf packetDropRetryLimitReached:vector(packetBytes) ETV
attr interpolationmode none
attr recordingmode vector(packetBytes)
attr source packetDropReasonIsRetryLimitReached(packetDropped)
attr title "packet drops: retry limit reached, packetBytes"
vector 38 Scenario.node[0].wlan[0].mac.dcf frameSequenceActive:vector ETV
attr autoWarmupFilter false
attr interpolationmode sample-hold
attr recordingmode vector
attr source warmup(count(frameSequenceStarted)-count(frameSequenceFinished))
attr title "frame sequence active"
vector 39 Scenario.node[0].wlan[0].mac.dcf datarateSelected:vector ETV
attr interpolationmode none
attr recordingmode vector
attr title "datarates selected"
vector 40 Scenario.node[0].wlan[0].mac.rx nav:vector ETV
attr interpolationmode linear
attr recordingmode vector
attr source navChanged
attr title "network allocation vector"
vector 41 Scenario.node[0].wlan[0].mac packetSentToUpper:vector(packetBytes) ETV
attr interpolationmode none
attr recordingmode vector(packetBytes)
attr title "packets sent to upper layer, packetBytes"
vector 42 Scenario.node[0].wlan[0].mac packetSentToLower:vector(packetBytes) ETV
attr interpolationmode none
attr recordingmode vector(packetBytes)
attr title "packets sent to lower layer, packetBytes"
vector 43 Scenario.node[0].wlan[0].mac packetReceivedFromUpper:vector(packetBytes) ETV
attr interpolationmode none
attr recordingmode vector(packetBytes)
attr title "packets received from upper layer, packetBytes"
vector 44 Scenario.node[0].wlan[0].mac packetReceivedFromLower:vector(packetBytes) ETV
attr interpolationmode none
attr recordingmode vector(packetBytes)
attr title "packets received from lower layer, packetBytes"
vector 45 Scenario.node[0].wlan[0].mac packetDrop:vector(packetBytes) ETV
attr interpolationmode none
attr recordingmode vector(packetBytes)
attr source packetDropped
attr title "packet drops, packetBytes"
vector 46 Scenario.node[0].wlan[0].mac packetDropIncorrectlyReceived:vector(packetBytes) ETV
attr interpolationmode none
attr recordingmode vector(packetBytes)
attr source packetDropReasonIsIncorrectlyReceived(packetDropped)
attr title "packet drops: incorrectly received, packetBytes"
vector 47 Scenario.node[0].wlan[0].mac packetDropNotAddressedToUs:vector(packetBytes) ETV
attr interpolationmode none
attr recordingmode vector(packetBytes)
attr source packetDropReasonIsNotAddressedToUs(packetDropped)
attr title "packet drops: not addressed to us, packetBytes"
vector 48 Scenario.node[0].wlan[0].mac packetDropQueueOverflow:vector(packetBytes) ETV
attr interpolationmode none
attr recordingmode vector(packetBytes)
attr source packetDropReasonIsQueueOverflow(packetDropped)
attr title "packet drops: queue overflow, packetBytes"
vector 49 Scenario.node[0].wlan[0].mac packetDropRetryLimitReached:vector(packetBytes) ETV
attr interpolationmode none
attr recordingmode vector(packetBytes)
attr source packetDropReasonIsRetryLimitReached(packetDropped)
attr title "packet drops: retry limit reached, packetBytes"
vector 50 Scenario.node[0].wlan[0].mac packetDropDuplicateDetected:vector(packetBytes) ETV
attr interpolationmode none
attr recordingmode vector(packetBytes)
attr source packetDropReasonIsDuplicateDetected(packetDropped)
attr title "packet drops: duplicate detected, packetBytes"
vector 51 Scenario.node[0].wlan[0].mac packetDropOther:vector(packetBytes) ETV
attr interpolationmode none
attr recordingmode vector(packetBytes)
attr source packetDropReasonIsOther(packetDropped)
attr title "packet drops: other, packetBytes"
vector 52 Scenario.node[0].wlan[0].radio radioMode:vector ETV
attr interpolationmode sample-hold
attr recordingmode vector
attr source radioModeChanged
attr title "Radio mode"
vector 53 Scenario.node[0].wlan[0].radio receptionState:vector ETV
attr interpolationmode sample-hold
attr recordingmode vector
attr source receptionStateChanged
attr title "Radio reception state"
vector 54 Scenario.node[0].wlan[0].radio transmissionState:vector ETV
attr interpolationmode sample-hold
attr recordingmode vector
attr source transmissionStateChanged
attr title "Radio transmission state"
vector 55 Scenario.node[0].wlan[0].radio radioChannel:vector ETV
attr interpolationmode sample-hold
attr recordingmode vector
attr source radioChannelChanged
attr title "Radio channel"
vector 56 Scenario.node[0].wlan[0] packetDropInterfaceDown:vector(packetBytes) ETV
attr interpolationmode none
attr recordingmode vector(packetBytes)
attr source packetDropReasonIsInterfaceDown(packetDropped)
attr title "packet drops: interface down, packetBytes"
vector 57 Scenario.node[0].wlan[0] packetDropNoCarrier:vector(packetBytes) ETV
attr interpolationmode none
attr recordingmode vector(packetBytes)
attr source packetDropReasonIsNoCarrier(packetDropped)
attr title "packet drops: no carrier, packetBytes"
vector 58 Scenario.node[0].ipv4.ip packetDropAddressResolutionFailed:vector(packetBytes) ETV
attr interpolationmode none
attr recordingmode vector(packetBytes)
attr source packetDropReasonIsAddressResolutionFailed(packetDropped)
attr title "packet drop: address resolution failed, packetBytes"
vector 59 Scenario.node[0].ipv4.ip packetDropHopLimitReached:vector(packetBytes) ETV
attr interpolationmode none
attr recordingmode vector(packetBytes)
attr source packetDropReasonIsHopLimitReached(packetDropped)
attr title "packet drop: hop limit reached, packetBytes"
vector 60 Scenario.node[0].ipv4.ip packetDropForwardingDisabled:vector(packetBytes) ETV
attr interpolationmode none
attr recordingmode vector(packetBytes)
attr source packetDropReasonIsForwardingDisabled(packetDropped)
attr title "packet drop: forwarding disabled, packetBytes"
vector 61 Scenario.node[0].ipv4.ip packetDropNoInterfaceFound:vector(packetBytes) ETV
attr interpolationmode none
attr recordingmode vector(packetBytes)
attr source packetDropReasonIsNoInterfaceFound(packetDropped)
attr title "packet drop: no interface found, packetBytes"
vector 62 Scenario.node[0].ipv4.ip packetDropNoRouteFound:vector(packetBytes) ETV
attr interpolationmode none
attr recordingmode vector(packetBytes)
attr source packetDropReasonIsNoRouteFound(packetDropped)
attr title "packet drop: no route found, packetBytes"
vector 63 Scenario.node[0].ipv4.ip packetDropUndefined:vector(packetBytes) ETV
attr interpolationmode none
attr recordingmode vector(packetBytes)
attr source packetDropReasonIsUndefined(packetDropped)
attr title "packet drop: undefined, packetBytes"
vector 64 Scenario.node[0].ipv4.arp arpRequestSent:vector(packetBytes) ETV
attr recordingmode vector(packetBytes)
attr source arpRequestSent
attr title "ARP request sent, packetBytes"
vector 65 Scenario.node[0].ipv4.arp arpReplySent:vector(packetBytes) ETV
attr recordingmode vector(packetBytes)
attr source arpReplySent
attr title "ARP replies sent, packetBytes"
vector 66 Scenario.node[0].udp packetSent:vector(packetBytes) ETV
attr interpolationmode none
attr recordingmode vector(packetBytes)
attr source packetSent
attr title "packets sent, packetBytes"
vector 67 Scenario.node[0].udp packetReceived:vector(packetBytes) ETV
attr interpolationmode none
attr recordingmode vector(packetBytes)
attr source packetReceived
attr title "packets received, packetBytes"
vector 68 Scenario.node[0].udp passedUpPk:vector(count) ETV
attr interpolationmode none
attr recordingmode vector(count)
attr source packetSentToUpper
attr title "packets passed up, count"
vector 69 Scenario.node[0].udp droppedPkWrongPort:vector(count) ETV
attr interpolationmode none
attr recordingmode vector(count)
attr source packetDropReasonIsNoPortFound(packetDropped)
attr title "packets dropped (wrong port), count"
vector 70 Scenario.node[0].udp droppedPkBadChecksum:vector(count) ETV
attr interpolationmode none
attr recordingmode vector(count)
attr source packetDropReasonIsIncorrectlyReceived(packetDropped)
attr title "packets dropped (checksum error), count"
vector 71 Scenario.node[0].app[0] packetReceived:vector(packetBytes) ETV
attr interpolationmode none
attr recordingmode vector(packetBytes)
attr source packetReceived
attr title "packets received, packetBytes"
vector 72 Scenario.node[0].app[0] throughput:vector ETV
attr recordingmode vector
attr source throughput(packetReceived)
attr title throughput
attr unit bps
vector 73 Scenario.node[0].app[0] packetSent:vector(packetBytes) ETV
attr interpolationmode none
attr recordingmode vector(packetBytes)
attr source packetSent
attr title "packets sent, packetBytes"
vector 74 Scenario.node[0].app[0] rcvdPkLifetime:vector ETV
attr interpolationmode none
attr recordingmode vector
attr source dataAge(packetReceived)
attr title "received packet lifetime"
attr unit s
vector 75 Scenario.node[1].lo[0].lo rcvdPkFromHl:vector(packetBytes) ETV
attr interpolationmode none
attr recordingmode vector(packetBytes)
attr source packetReceivedFromUpper
attr title "packets received from higher layer, packetBytes"
vector 76 Scenario.node[1].lo[0].lo passedUpPk:vector(packetBytes) ETV
attr interpolationmode none
attr recordingmode vector(packetBytes)
attr source packetSentToUpper
attr title "packets passed to higher layer, packetBytes"
vector 77 Scenario.node[1].lo[0] packetDropInterfaceDown:vector(packetBytes) ETV
attr interpolationmode none
attr recordingmode vector(packetBytes)
attr source packetDropReasonIsInterfaceDown(packetDropped)
attr title "packet drops: interface down, packetBytes"
vector 78 Scenario.node[1].lo[0] packetDropNoCarrier:vector(packetBytes) ETV
attr interpolationmode none
attr recordingmode vector(packetBytes)
attr source packetDropReasonIsNoCarrier(packetDropped)
attr title "packet drops: no carrier, packetBytes"
vector 79 Scenario.node[1].wlan[0].mac.dcf.channelAccess.pendingQueue queueLength:vector ETV
attr autoWarmupFilter false
attr interpolationmode sample-hold
attr recordingmode vector
attr source "warmup(atomic(constant0(packetPushEnded) + count(packetPushStarted) - count(packetPulled) - count(packetRemoved) - count(packetDropped)))"
attr title "queue length"
attr unit pk
vector 80 Scenario.node[1].wlan[0].mac.dcf.channelAccess.pendingQueue queueBitLength:vector ETV
attr autoWarmupFilter false
attr interpolationmode sample-hold
attr recordingmode vector
attr source "warmup(atomic(constant0(packetPushEnded) + sum(packetLength(packetPushStarted)) - sum(packetLength(packetPulled)) - sum(packetLength(packetRemoved)) - sum(packetLength(packetDropped))))"
attr title "queue bit length"
attr unit b
vector 81 Scenario.node[1].wlan[0].mac.dcf.channelAccess.pendingQueue queueingTime:vector ETV
attr interpolationmode none
attr recordingmode vector
attr source queueingTime(packetPulled)
attr title "queueing times"
attr unit s
vector 82 Scenario.node[1].wlan[0].mac.dcf.channelAccess.pendingQueue incomingPacketLengths:vector ETV
attr interpolationmode none
attr recordingmode vector
attr source packetLength(packetPushStarted)
attr title "incoming packet lengths"
attr unit b
vector 83 Scenario.node[1].wlan[0].mac.dcf.channelAccess.pendingQueue incomingDataRate:vector ETV
attr interpolationmode linear
attr recordingmode vector
attr source throughput(packetPushStarted)
attr title "incoming datarate"
attr unit bps
vector 84 Scenario.node[1].wlan[0].mac.dcf.channelAccess.pendingQueue outgoingPacketLengths:vector ETV
attr interpolationmode none
attr recordingmode vector
attr source packetLength(packetPulled)
attr title "outgoing packet lengths"
attr unit b
vector 85 Scenario.node[1].wlan[0].mac.dcf.channelAccess.pendingQueue outgoingDataRate:vector ETV
attr interpolationmode linear
attr recordingmode vector
attr source throughput(packetPulled)
attr title "outgoing datarate"
attr unit bps
vector 86 Scenario.node[1].wlan[0].mac.dcf.channelAccess.pendingQueue droppedPacketLengthsQueueOverflow:vector ETV
attr interpolationmode none
attr recordingmode vector
attr source packetLength(packetDropReasonIsQueueOverflow(packetDropped))
attr title "dropped packet lengths: queue overflow"
attr unit b
vector 87 Scenario.node[1].wlan[0].mac.dcf.channelAccess.pendingQueue flowQueueingTime:vector ETV
attr interpolationmode none
attr recordingmode vector
attr source queueingTime(demuxFlow(packetPulled))
attr title "flow queueing times"
attr unit s
vector 88 Scenario.node[1].wlan[0].mac.dcf.channelAccess.pendingQueue flowIncomingDataRate:vector ETV
attr interpolationmode linear
attr recordingmode vector
attr source throughput(flowPacketLength(demuxFlow(packetPushStarted)))
attr title "flow specific incoming data rate"
attr unit bps
vector 89 Scenario.node[1].wlan[0].mac.dcf.channelAccess.pendingQueue flowOutgoingDataRate:vector ETV
attr interpolationmode linear
attr recordingmode vector
attr source throughput(flowPacketLength(demuxFlow(packetPulled)))
attr title "flow specific outgoing data rate"
attr unit bps
vector 90 Scenario.node[1].wlan[0].mac.dcf.channelAccess.inProgressFrames queueingTime:vector ETV
attr interpolationmode none
attr recordingmode vector
attr source queueingTime(packetDequeued)
attr title "queueing times"
vector 91 Scenario.node[1].wlan[0].mac.dcf.channelAccess.inProgressFrames queueLength:vector ETV
attr autoWarmupFilter false
attr interpolationmode sample-hold
attr recordingmode vector
attr source "warmup(count(packetEnqueued) - count(packetDequeued))"
attr title "queue length"
vector 92 Scenario.node[1].wlan[0].mac.dcf.channelAccess.contention backoffPeriodGenerated:vector ETV
attr interpolationmode none
attr recordingmode vector
attr title "backoff periods"
vector 93 Scenario.node[1].wlan[0].mac.dcf.channelAccess.contention backoffActive:vector ETV
attr autoWarmupFilter false
attr interpolationmode sample-hold
attr recordingmode vector
attr source warmup(count(backoffStarted)-count(backoffStopped))
attr title "backoff active"
vector 94 Scenario.node[1].wlan[0].mac.dcf.channelAccess.contention stateChanged:vector ETV
attr enum IDLE,DEFER,IFS_AND_BACKOFF
attr interpolationmode none
attr recordingmode vector
attr title "contention state changed"
attr type enum
vector 95 Scenario.node[1].wlan[0].mac.dcf.recipientMacDataService packetDropDuplicateDetected:vector(packetBytes) ETV
attr interpolationmode none
attr recordingmode vector(packetBytes)
attr source packetDropReasonIsDuplicateDetected(packetDropped)
attr title "packet drops: duplicate detected, packetBytes"
vector 96 Scenario.node[1].wlan[0].mac.dcf.recoveryProcedure contentionWindowChanged:vector ETV
attr interpolationmode sample-hold
attr recordingmode vector
attr title "contention window"
vector 97 Scenario.node[1].wlan[0].mac.dcf packetSentToPeer:vector(packetBytes) ETV
attr interpolationmode none
attr recordingmode vector(packetBytes)
attr title "packets sent, packetBytes"
vector 98 Scenario.node[1].wlan[0].mac.dcf packetSentToPeerUnicast:vector(packetBytes) ETV
attr interpolationmode none
attr recordingmode vector(packetBytes)
attr source ieee80211Unicast(packetSentToPeer)
attr title "packets sent: unicast, packetBytes"
vector 99 Scenario.node[1].wlan[0].mac.dcf packetSentToPeerMulticast:vector(packetBytes) ETV
attr interpolationmode none
attr recordingmode vector(packetBytes)
attr source ieee80211Multicast(packetSentToPeer)
attr title "packets sent: multicast, packetBytes"
vector 100 Scenario.node[1].wlan[0].mac.dcf packetSentToPeerBroadcast:vector(packetBytes) ETV
attr interpolationmode none
attr recordingmode vector(packetBytes)
attr source ieee80211Broadcast(packetSentToPeer)
attr title "packets sent: broadcast , packetBytes"
vector 101 Scenario.node[1].wlan[0].mac.dcf packetSentToPeerWithRetry:vector(packetBytes) ETV
attr interpolationmode none
attr recordingmode vector(packetBytes)
attr source ieee80211Retry(packetSentToPeer)
attr title "packets sent: with retry, packetBytes"
vector 102 Scenario.node[1].wlan[0].mac.dcf packetSentToPeerWithoutRetry:vector(packetBytes) ETV
attr interpolationmode none
attr recordingmode vector(packetBytes)
attr source ieee80211NotRetry(packetSentToPeer)
attr title "packets sent: without retry, packetBytes"
vector 103 Scenario.node[1].wlan[0].mac.dcf packetReceivedFromPeer:vector(packetBytes) ETV
attr interpolationmode none
attr recordingmode vector(packetBytes)
attr title "packets received, packetBytes"
vector 104 Scenario.node[1].wlan[0].mac.dcf packetReceivedFromPeerUnicast:vector(packetBytes) ETV
attr interpolationmode none
attr recordingmode vector(packetBytes)
attr source ieee80211Unicast(packetReceivedFromPeer)
attr title "packets received: unicast, packetBytes"
vector 105 Scenario.node[1].wlan[0].mac.dcf packetReceivedFromPeerMulticast:vector(packetBytes) ETV
attr interpolationmode none
attr recordingmode vector(packetBytes)
attr source ieee80211Multicast(packetReceivedFromPeer)
attr title "packets received: multicast, packetBytes"
vector 106 Scenario.node[1].wlan[0].mac.dcf packetReceivedFromPeerBroadcast:vector(packetBytes) ETV
attr interpolationmode none
attr recordingmode vector(packetBytes)
attr source ieee80211Broadcast(packetReceivedFromPeer)
attr title "packets received: broadcast, packetBytes"
vector 107 Scenario.node[1].wlan[0].mac.dcf packetReceivedFromPeerWithRetry:vector(packetBytes) ETV
attr interpolationmode none
attr recordingmode vector(packetBytes)
attr source ieee80211Retry(packetReceivedFromPeer)
attr title "packets received: with retry, packetBytes"
vector 108 Scenario.node[1].wlan[0].mac.dcf packetReceivedFromPeerWithoutRetry:vector(packetBytes) ETV
attr interpolationmode none
attr recordingmode vector(packetBytes)
attr source ieee80211NotRetry(packetReceivedFromPeer)
attr title "packets received: without retry, packetBytes"
vector 109 Scenario.node[1].wlan[0].mac.dcf packetDrop:vector(packetBytes) ETV
attr interpolationmode none
attr recordingmode vector(packetBytes)
attr source packetDropped
attr title "packet drops, packetBytes"
vector 110 Scenario.node[1].wlan[0].mac.dcf packetDropNotAddressedToUs:vector(packetBytes) ETV
attr interpolationmode none
attr recordingmode vector(packetBytes)
attr source packetDropReasonIsNotAddressedToUs(packetDropped)
attr title "packet drops: not addressed to us, packetBytes"
vector 111 Scenario.node[1].wlan[0].mac.dcf packetDropQueueOverflow:vector(packetBytes) ETV
attr interpolationmode none
attr recordingmode vector(packetBytes)
attr source packetDropReasonIsQueueOverflow(packetDropped)
attr title "packet drops: queue overflow, packetBytes"
vector 112 Scenario.node[1].wlan[0].mac.dcf packetDropRetryLimitReached:vector(packetBytes) ETV
attr interpolationmode none
attr recordingmode vector(packetBytes)
attr source packetDropReasonIsRetryLimitReached(packetDropped)
attr title "packet drops: retry limit reached, packetBytes"
vector 113 Scenario.node[1].wlan[0].mac.dcf frameSequenceActive:vector ETV
attr autoWarmupFilter false
attr interpolationmode sample-hold
attr recordingmode vector
attr source warmup(count(frameSequenceStarted)-count(frameSequenceFinished))
attr title "frame sequence active"
vector 114 Scenario.node[1].wlan[0].mac.dcf datarateSelected:vector ETV
attr interpolationmode none
attr recordingmode vector
attr title "datarates selected"
vector 115 Scenario.node[1].wlan[0].mac.rx nav:vector ETV
attr interpolationmode linear
attr recordingmode vector
attr source navChanged
attr title "network allocation vector"
vector 116 Scenario.node[1].wlan[0].mac packetSentToUpper:vector(packetBytes) ETV
attr interpolationmode none
attr recordingmode vector(packetBytes)
attr title "packets sent to upper layer, packetBytes"
vector 117 Scenario.node[1].wlan[0].mac packetSentToLower:vector(packetBytes) ETV
attr interpolationmode none
attr recordingmode vector(packetBytes)
attr title "packets sent to lower layer, packetBytes"
vector 118 Scenario.node[1].wlan[0].mac packetReceivedFromUpper:vector(packetBytes) ETV
attr interpolationmode none
attr recordingmode vector(packetBytes)
attr title "packets received from upper layer, packetBytes"
vector 119 Scenario.node[1].wlan[0].mac packetReceivedFromLower:vector(packetBytes) ETV
attr interpolationmode none
attr recordingmode vector(packetBytes)
attr title "packets received from lower layer, packetBytes"
vector 120 Scenario.node[1].wlan[0].mac packetDrop:vector(packetBytes) ETV
attr interpolationmode none
attr recordingmode vector(packetBytes)
attr source packetDropped
attr title "packet drops, packetBytes"
vector 121 Scenario.node[1].wlan[0].mac packetDropIncorrectlyReceived:vector(packetBytes) ETV
attr interpolationmode none
attr recordingmode vector(packetBytes)
attr source packetDropReasonIsIncorrectlyReceived(packetDropped)
attr title "packet drops: incorrectly received, packetBytes"
vector 122 Scenario.node[1].wlan[0].mac packetDropNotAddressedToUs:vector(packetBytes) ETV
attr interpolationmode none
attr recordingmode vector(packetBytes)
attr source packetDropReasonIsNotAddressedToUs(packetDropped)
attr title "packet drops: not addressed to us, packetBytes"
vector 123 Scenario.node[1].wlan[0].mac packetDropQueueOverflow:vector(packetBytes) ETV
attr interpolationmode none
attr recordingmode vector(packetBytes)
attr source packetDropReasonIsQueueOverflow(packetDropped)
attr title "packet drops: queue overflow, packetBytes"
vector 124 Scenario.node[1].wlan[0].mac packetDropRetryLimitReached:vector(packetBytes) ETV
attr interpolationmode none
attr recordingmode vector(packetBytes)
attr source packetDropReasonIsRetryLimitReached(packetDropped)
attr title "packet drops: retry limit reached, packetBytes"
vector 125 Scenario.node[1].wlan[0].mac packetDropDuplicateDetected:vector(packetBytes) ETV
attr interpolationmode none
attr recordingmode vector(packetBytes)
attr source packetDropReasonIsDuplicateDetected(packetDropped)
attr title "packet drops: duplicate detected, packetBytes"
vector 126 Scenario.node[1].wlan[0].mac packetDropOther:vector(packetBytes) ETV
attr interpolationmode none
attr recordingmode vector(packetBytes)
attr source packetDropReasonIsOther(packetDropped)
attr title "packet drops: other, packetBytes"
vector 127 Scenario.node[1].wlan[0].radio radioMode:vector ETV
attr interpolationmode sample-hold
attr recordingmode vector
attr source radioModeChanged
attr title "Radio mode"
vector 128 Scenario.node[1].wlan[0].radio receptionState:vector ETV
attr interpolationmode sample-hold
attr recordingmode vector
attr source receptionStateChanged
attr title "Radio reception state"
vector 129 Scenario.node[1].wlan[0].radio transmissionState:vector ETV
attr interpolationmode sample-hold
attr recordingmode vector
attr source transmissionStateChanged
attr title "Radio transmission state"
vector 130 Scenario.node[1].wlan[0].radio radioChannel:vector ETV
attr interpolationmode sample-hold
attr recordingmode vector
attr source radioChannelChanged
attr title "Radio channel"
vector 131 Scenario.node[1].wlan[0] packetDropInterfaceDown:vector(packetBytes) ETV
attr interpolationmode none
attr recordingmode vector(packetBytes)
attr source packetDropReasonIsInterfaceDown(packetDropped)
attr title "packet drops: interface down, packetBytes"
vector 132 Scenario.node[1].wlan[0] packetDropNoCarrier:vector(packetBytes) ETV
attr interpolationmode none
attr recordingmode vector(packetBytes)
attr source packetDropReasonIsNoCarrier(packetDropped)
attr title "packet drops: no carrier, packetBytes"
vector 133 Scenario.node[1].ipv4.ip packetDropAddressResolutionFailed:vector(packetBytes) ETV
attr interpolationmode none
attr recordingmode vector(packetBytes)
attr source packetDropReasonIsAddressResolutionFailed(packetDropped)
attr title "packet drop: address resolution failed, packetBytes"
vector 134 Scenario.node[1].ipv4.ip packetDropHopLimitReached:vector(packetBytes) ETV
attr interpolationmode none
attr recordingmode vector(packetBytes)
attr source packetDropReasonIsHopLimitReached(packetDropped)
attr title "packet drop: hop limit reached, packetBytes"
vector 135 Scenario.node[1].ipv4.ip packetDropForwardingDisabled:vector(packetBytes) ETV
attr interpolationmode none
attr recordingmode vector(packetBytes)
attr source packetDropReasonIsForwardingDisabled(packetDropped)
attr title "packet drop: forwarding disabled, packetBytes"
vector 136 Scenario.node[1].ipv4.ip packetDropNoInterfaceFound:vector(packetBytes) ETV
attr interpolationmode none
attr recordingmode vector(packetBytes)
attr source packetDropReasonIsNoInterfaceFound(packetDropped)
attr title "packet drop: no interface found, packetBytes"
vector 137 Scenario.node[1].ipv4.ip packetDropNoRouteFound:vector(packetBytes) ETV
attr interpolationmode none
attr recordingmode vector(packetBytes)
attr source packetDropReasonIsNoRouteFound(packetDropped)
attr title "packet drop: no route found, packetBytes"
vector 138 Scenario.node[1].ipv4.ip packetDropUndefined:vector(packetBytes) ETV
attr interpolationmode none
attr recordingmode vector(packetBytes)
attr source packetDropReasonIsUndefined(packetDropped)
attr title "packet drop: undefined, packetBytes"
vector 139 Scenario.node[1].ipv4.arp arpRequestSent:vector(packetBytes) ETV
attr recordingmode vector(packetBytes)
attr source arpRequestSent
attr title "ARP request sent, packetBytes"
vector 140 Scenario.node[1].ipv4.arp arpReplySent:vector(packetBytes) ETV
attr recordingmode vector(packetBytes)
attr source arpReplySent
attr title "ARP replies sent, packetBytes"
vector 141 Scenario.node[1].udp packetSent:vector(packetBytes) ETV
attr interpolationmode none
attr recordingmode vector(packetBytes)
attr source packetSent
attr title "packets sent, packetBytes"
vector 142 Scenario.node[1].udp packetReceived:vector(packetBytes) ETV
attr interpolationmode none
attr recordingmode vector(packetBytes)
attr source packetReceived
attr title "packets received, packetBytes"
vector 143 Scenario.node[1].udp passedUpPk:vector(count) ETV
attr interpolationmode none
attr recordingmode vector(count)
attr source packetSentToUpper
attr title "packets passed up, count"
vector 144 Scenario.node[1].udp droppedPkWrongPort:vector(count) ETV
attr interpolationmode none
attr recordingmode vector(count)
attr source packetDropReasonIsNoPortFound(packetDropped)
attr title "packets dropped (wrong port), count"
vector 145 Scenario.node[1].udp droppedPkBadChecksum:vector(count) ETV
attr interpolationmode none
attr recordingmode vector(count)
attr source packetDropReasonIsIncorrectlyReceived(packetDropped)
attr title "packets dropped (checksum error), count"
vector 146 Scenario.node[1].app[0] packetReceived:vector(packetBytes) ETV
attr interpolationmode none
attr recordingmode vector(packetBytes)
attr source packetReceived
attr title "packets received, packetBytes"
vector 147 Scenario.node[1].app[0] throughput:vector ETV
attr recordingmode vector
attr source throughput(packetReceived)
attr title throughput
attr unit bps
vector 148 Scenario.node[1].app[0] packetSent:vector(packetBytes) ETV
attr interpolationmode none
attr recordingmode vector(packetBytes)
attr source packetSent
attr title "packets sent, packetBytes"
vector 149 Scenario.node[1].app[0] rcvdPkLifetime:vector ETV
attr interpolationmode none
attr recordingmode vector
attr source dataAge(packetReceived)
attr title "received packet lifetime"
attr unit s
vector 150 Scenario.node[2].lo[0].lo rcvdPkFromHl:vector(packetBytes) ETV
attr interpolationmode none
attr recordingmode vector(packetBytes)
attr source packetReceivedFromUpper
attr title "packets received from higher layer, packetBytes"
vector 151 Scenario.node[2].lo[0].lo passedUpPk:vector(packetBytes) ETV
attr interpolationmode none
attr recordingmode vector(packetBytes)
attr source packetSentToUpper
attr title "packets passed to higher layer, packetBytes"
vector 152 Scenario.node[2].lo[0] packetDropInterfaceDown:vector(packetBytes) ETV
attr interpolationmode none
attr recordingmode vector(packetBytes)
attr source packetDropReasonIsInterfaceDown(packetDropped)
attr title "packet drops: interface down, packetBytes"
vector 153 Scenario.node[2].lo[0] packetDropNoCarrier:vector(packetBytes) ETV
attr interpolationmode none
attr recordingmode vector(packetBytes)
attr source packetDropReasonIsNoCarrier(packetDropped)
attr title "packet drops: no carrier, packetBytes"
vector 154 Scenario.node[2].wlan[0].mac.dcf.channelAccess.pendingQueue queueLength:vector ETV
attr autoWarmupFilter false
attr interpolationmode sample-hold
attr recordingmode vector
attr source "warmup(atomic(constant0(packetPushEnded) + count(packetPushStarted) - count(packetPulled) - count(packetRemoved) - count(packetDropped)))"
attr title "queue length"
attr unit pk
vector 155 Scenario.node[2].wlan[0].mac.dcf.channelAccess.pendingQueue queueBitLength:vector ETV
attr autoWarmupFilter false
attr interpolationmode sample-hold
attr recordingmode vector
attr source "warmup(atomic(constant0(packetPushEnded) + sum(packetLength(packetPushStarted)) - sum(packetLength(packetPulled)) - sum(packetLength(packetRemoved)) - sum(packetLength(packetDropped))))"
attr title "queue bit length"
attr unit b
vector 156 Scenario.node[2].wlan[0].mac.dcf.channelAccess.pendingQueue queueingTime:vector ETV
attr interpolationmode none
attr recordingmode vector
attr source queueingTime(packetPulled)
attr title "queueing times"
attr unit s
vector 157 Scenario.node[2].wlan[0].mac.dcf.channelAccess.pendingQueue incomingPacketLengths:vector ETV
attr interpolationmode none
attr recordingmode vector
attr source packetLength(packetPushStarted)
attr title "incoming packet lengths"
attr unit b
vector 158 Scenario.node[2].wlan[0].mac.dcf.channelAccess.pendingQueue incomingDataRate:vector ETV
attr interpolationmode linear
attr recordingmode vector
attr source throughput(packetPushStarted)
attr title "incoming datarate"
attr unit bps
vector 159 Scenario.node[2].wlan[0].mac.dcf.channelAccess.pendingQueue outgoingPacketLengths:vector ETV
attr interpolationmode none
attr recordingmode vector
attr source packetLength(packetPulled)
attr title "outgoing packet lengths"
attr unit b
vector 160 Scenario.node[2].wlan[0].mac.dcf.channelAccess.pendingQueue outgoingDataRate:vector ETV
attr interpolationmode linear
attr recordingmode vector
attr source throughput(packetPulled)
attr title "outgoing datarate"
attr unit bps
vector 161 Scenario.node[2].wlan[0].mac.dcf.channelAccess.pendingQueue droppedPacketLengthsQueueOverflow:vector ETV
attr interpolationmode none
attr recordingmode vector
attr source packetLength(packetDropReasonIsQueueOverflow(packetDropped))
attr title "dropped packet lengths: queue overflow"
attr unit b
vector 162 Scenario.node[2].wlan[0].mac.dcf.channelAccess.pendingQueue flowQueueingTime:vector ETV
attr interpolationmode none
attr recordingmode vector
attr source queueingTime(demuxFlow(packetPulled))
attr title "flow queueing times"
attr unit s
vector 163 Scenario.node[2].wlan[0].mac.dcf.channelAccess.pendingQueue flowIncomingDataRate:vector ETV
attr interpolationmode linear
attr recordingmode vector
attr source throughput(flowPacketLength(demuxFlow(packetPushStarted)))
attr title "flow specific incoming data rate"
attr unit bps
vector 164 Scenario.node[2].wlan[0].mac.dcf.channelAccess.pendingQueue flowOutgoingDataRate:vector ETV
attr interpolationmode linear
attr recordingmode vector
attr source throughput(flowPacketLength(demuxFlow(packetPulled)))
attr title "flow specific outgoing data rate"
attr unit bps
vector 165 Scenario.node[2].wlan[0].mac.dcf.channelAccess.inProgressFrames queueingTime:vector ETV
attr interpolationmode none
attr recordingmode vector
attr source queueingTime(packetDequeued)
attr title "queueing times"
vector 166 Scenario.node[2].wlan[0].mac.dcf.channelAccess.inProgressFrames queueLength:vector ETV
attr autoWarmupFilter false
attr interpolationmode sample-hold
attr recordingmode vector
attr source "warmup(count(packetEnqueued) - count(packetDequeued))"
attr title "queue length"
vector 167 Scenario.node[2].wlan[0].mac.dcf.channelAccess.contention backoffPeriodGenerated:vector ETV
attr interpolationmode none
attr recordingmode vector
attr title "backoff periods"
vector 168 Scenario.node[2].wlan[0].mac.dcf.channelAccess.contention backoffActive:vector ETV
attr autoWarmupFilter false
attr interpolationmode sample-hold
attr recordingmode vector
attr source warmup(count(backoffStarted)-count(backoffStopped))
attr title "backoff active"
vector 169 Scenario.node[2].wlan[0].mac.dcf.channelAccess.contention stateChanged:vector ETV
attr enum IDLE,DEFER,IFS_AND_BACKOFF
attr interpolationmode none
attr recordingmode vector
attr title "contention state changed"
attr type enum
vector 170 Scenario.node[2].wlan[0].mac.dcf.recipientMacDataService packetDropDuplicateDetected:vector(packetBytes) ETV
attr interpolationmode none
attr recordingmode vector(packetBytes)
attr source packetDropReasonIsDuplicateDetected(packetDropped)
attr title "packet drops: duplicate detected, packetBytes"
vector 171 Scenario.node[2].wlan[0].mac.dcf.recoveryProcedure contentionWindowChanged:vector ETV
attr interpolationmode sample-hold
attr recordingmode vector
attr title "contention window"
vector 172 Scenario.node[2].wlan[0].mac.dcf packetSentToPeer:vector(packetBytes) ETV
attr interpolationmode none
attr recordingmode vector(packetBytes)
attr title "packets sent, packetBytes"
vector 173 Scenario.node[2].wlan[0].mac.dcf packetSentToPeerUnicast:vector(packetBytes) ETV
attr interpolationmode none
attr recordingmode vector(packetBytes)
attr source ieee80211Unicast(packetSentToPeer)
attr title "packets sent: unicast, packetBytes"
vector 174 Scenario.node[2].wlan[0].mac.dcf packetSentToPeerMulticast:vector(packetBytes) ETV
attr interpolationmode none
attr recordingmode vector(packetBytes)
attr source ieee80211Multicast(packetSentToPeer)
attr title "packets sent: multicast, packetBytes"
vector 175 Scenario.node[2].wlan[0].mac.dcf packetSentToPeerBroadcast:vector(packetBytes) ETV
attr interpolationmode none
attr recordingmode vector(packetBytes)
attr source ieee80211Broadcast(packetSentToPeer)
attr title "packets sent: broadcast , packetBytes"
vector 176 Scenario.node[2].wlan[0].mac.dcf packetSentToPeerWithRetry:vector(packetBytes) ETV
attr interpolationmode none
attr recordingmode vector(packetBytes)
attr source ieee80211Retry(packetSentToPeer)
attr title "packets sent: with retry, packetBytes"
vector 177 Scenario.node[2].wlan[0].mac.dcf packetSentToPeerWithoutRetry:vector(packetBytes) ETV
attr interpolationmode none
attr recordingmode vector(packetBytes)
attr source ieee80211NotRetry(packetSentToPeer)
attr title "packets sent: without retry, packetBytes"
vector 178 Scenario.node[2].wlan[0].mac.dcf packetReceivedFromPeer:vector(packetBytes) ETV
attr interpolationmode none
attr recordingmode vector(packetBytes)
attr title "packets received, packetBytes"
vector 179 Scenario.node[2].wlan[0].mac.dcf packetReceivedFromPeerUnicast:vector(packetBytes) ETV
attr interpolationmode none
attr recordingmode vector(packetBytes)
attr source ieee80211Unicast(packetReceivedFromPeer)
attr title "packets received: unicast, packetBytes"
vector 180 Scenario.node[2].wlan[0].mac.dcf packetReceivedFromPeerMulticast:vector(packetBytes) ETV
attr interpolationmode none
attr recordingmode vector(packetBytes)
attr source ieee80211Multicast(packetReceivedFromPeer)
attr title "packets received: multicast, packetBytes"
vector 181 Scenario.node[2].wlan[0].mac.dcf packetReceivedFromPeerBroadcast:vector(packetBytes) ETV
attr interpolationmode none
attr recordingmode vector(packetBytes)
attr source ieee80211Broadcast(packetReceivedFromPeer)
attr title "packets received: broadcast, packetBytes"
vector 182 Scenario.node[2].wlan[0].mac.dcf packetReceivedFromPeerWithRetry:vector(packetBytes) ETV
attr interpolationmode none
attr recordingmode vector(packetBytes)
attr source ieee80211Retry(packetReceivedFromPeer)
attr title "packets received: with retry, packetBytes"
vector 183 Scenario.node[2].wlan[0].mac.dcf packetReceivedFromPeerWithoutRetry:vector(packetBytes) ETV
attr interpolationmode none
attr recordingmode vector(packetBytes)
attr source ieee80211NotRetry(packetReceivedFromPeer)
attr title "packets received: without retry, packetBytes"
vector 184 Scenario.node[2].wlan[0].mac.dcf packetDrop:vector(packetBytes) ETV
attr interpolationmode none
attr recordingmode vector(packetBytes)
attr source packetDropped
attr title "packet drops, packetBytes"
vector 185 Scenario.node[2].wlan[0].mac.dcf packetDropNotAddressedToUs:vector(packetBytes) ETV
attr interpolationmode none
attr recordingmode vector(packetBytes)
attr source packetDropReasonIsNotAddressedToUs(packetDropped)
attr title "packet drops: not addressed to us, packetBytes"
vector 186 Scenario.node[2].wlan[0].mac.dcf packetDropQueueOverflow:vector(packetBytes) ETV
attr interpolationmode none
attr recordingmode vector(packetBytes)
attr source packetDropReasonIsQueueOverflow(packetDropped)
attr title "packet drops: queue overflow, packetBytes"
vector 187 Scenario.node[2].wlan[0].mac.dcf packetDropRetryLimitReached:vector(packetBytes) ETV
attr interpolationmode none
attr recordingmode vector(packetBytes)
attr source packetDropReasonIsRetryLimitReached(packetDropped)
attr title "packet drops: retry limit reached, packetBytes"
vector 188 Scenario.node[2].wlan[0].mac.dcf frameSequenceActive:vector ETV
attr autoWarmupFilter false
attr interpolationmode sample-hold
attr recordingmode vector
attr source warmup(count(frameSequenceStarted)-count(frameSequenceFinished))
attr title "frame sequence active"
vector 189 Scenario.node[2].wlan[0].mac.dcf datarateSelected:vector ETV
attr interpolationmode none
attr recordingmode vector
attr title "datarates selected"
vector 190 Scenario.node[2].wlan[0].mac.rx nav:vector ETV
attr interpolationmode linear
attr recordingmode vector
attr source navChanged
attr title "network allocation vector"
vector 191 Scenario.node[2].wlan[0].mac packetSentToUpper:vector(packetBytes) ETV
attr interpolationmode none
attr recordingmode vector(packetBytes)
attr title "packets sent to upper layer, packetBytes"
vector 192 Scenario.node[2].wlan[0].mac packetSentToLower:vector(packetBytes) ETV
attr interpolationmode none
attr recordingmode vector(packetBytes)
attr title "packets sent to lower layer, packetBytes"
vector 193 Scenario.node[2].wlan[0].mac packetReceivedFromUpper:vector(packetBytes) ETV
attr interpolationmode none
attr recordingmode vector(packetBytes)
attr title "packets received from upper layer, packetBytes"
vector 194 Scenario.node[2].wlan[0].mac packetReceivedFromLower:vector(packetBytes) ETV
attr interpolationmode none
attr recordingmode vector(packetBytes)
attr title "packets received from lower layer, packetBytes"
vector 195 Scenario.node[2].wlan[0].mac packetDrop:vector(packetBytes) ETV
attr interpolationmode none
attr recordingmode vector(packetBytes)
attr source packetDropped
attr title "packet drops, packetBytes"
vector 196 Scenario.node[2].wlan[0].mac packetDropIncorrectlyReceived:vector(packetBytes) ETV
attr interpolationmode none
attr recordingmode vector(packetBytes)
attr source packetDropReasonIsIncorrectlyReceived(packetDropped)
attr title "packet drops: incorrectly received, packetBytes"
vector 197 Scenario.node[2].wlan[0].mac packetDropNotAddressedToUs:vector(packetBytes) ETV
attr interpolationmode none
attr recordingmode vector(packetBytes)
attr source packetDropReasonIsNotAddressedToUs(packetDropped)
attr title "packet drops: not addressed to us, packetBytes"
vector 198 Scenario.node[2].wlan[0].mac packetDropQueueOverflow:vector(packetBytes) ETV
attr interpolationmode none
attr recordingmode vector(packetBytes)
attr source packetDropReasonIsQueueOverflow(packetDropped)
attr title "packet drops: queue overflow, packetBytes"
vector 199 Scenario.node[2].wlan[0].mac packetDropRetryLimitReached:vector(packetBytes) ETV
attr interpolationmode none
attr recordingmode vector(packetBytes)
attr source packetDropReasonIsRetryLimitReached(packetDropped)
attr title "packet drops: retry limit reached, packetBytes"
vector 200 Scenario.node[2].wlan[0].mac packetDropDuplicateDetected:vector(packetBytes) ETV
attr interpolationmode none
attr recordingmode vector(packetBytes)
attr source packetDropReasonIsDuplicateDetected(packetDropped)
attr title "packet drops: duplicate detected, packetBytes"
vector 201 Scenario.node[2].wlan[0].mac packetDropOther:vector(packetBytes) ETV
attr interpolationmode none
attr recordingmode vector(packetBytes)
attr source packetDropReasonIsOther(packetDropped)
attr title "packet drops: other, packetBytes"
vector 202 Scenario.node[2].wlan[0].radio radioMode:vector ETV
attr interpolationmode sample-hold
attr recordingmode vector
attr source radioModeChanged
attr title "Radio mode"
vector 203 Scenario.node[2].wlan[0].radio receptionState:vector ETV
attr interpolationmode sample-hold
attr recordingmode vector
attr source receptionStateChanged
attr title "Radio reception state"
vector 204 Scenario.node[2].wlan[0].radio transmissionState:vector ETV
attr interpolationmode sample-hold
attr recordingmode vector
attr source transmissionStateChanged
attr title "Radio transmission state"
vector 205 Scenario.node[2].wlan[0].radio radioChannel:vector ETV
attr interpolationmode sample-hold
attr recordingmode vector
attr source radioChannelChanged
attr title "Radio channel"
vector 206 Scenario.node[2].wlan[0] packetDropInterfaceDown:vector(packetBytes) ETV
attr interpolationmode none
attr recordingmode vector(packetBytes)
attr source packetDropReasonIsInterfaceDown(packetDropped)
attr title "packet drops: interface down, packetBytes"
vector 207 Scenario.node[2].wlan[0] packetDropNoCarrier:vector(packetBytes) ETV
attr interpolationmode none
attr recordingmode vector(packetBytes)
attr source packetDropReasonIsNoCarrier(packetDropped)
attr title "packet drops: no carrier, packetBytes"
vector 208 Scenario.node[2].ipv4.ip packetDropAddressResolutionFailed:vector(packetBytes) ETV
attr interpolationmode none
attr recordingmode vector(packetBytes)
attr source packetDropReasonIsAddressResolutionFailed(packetDropped)
attr title "packet drop: address resolution failed, packetBytes"
vector 209 Scenario.node[2].ipv4.ip packetDropHopLimitReached:vector(packetBytes) ETV
attr interpolationmode none
attr recordingmode vector(packetBytes)
attr source packetDropReasonIsHopLimitReached(packetDropped)
attr title "packet drop: hop limit reached, packetBytes"
vector 210 Scenario.node[2].ipv4.ip packetDropForwardingDisabled:vector(packetBytes) ETV
attr interpolationmode none
attr recordingmode vector(packetBytes)
attr source packetDropReasonIsForwardingDisabled(packetDropped)
attr title "packet drop: forwarding disabled, packetBytes"
vector 211 Scenario.node[2].ipv4.ip packetDropNoInterfaceFound:vector(packetBytes) ETV
attr interpolationmode none
attr recordingmode vector(packetBytes)
attr source packetDropReasonIsNoInterfaceFound(packetDropped)
attr title "packet drop: no interface found, packetBytes"
vector 212 Scenario.node[2].ipv4.ip packetDropNoRouteFound:vector(packetBytes) ETV
attr interpolationmode none
attr recordingmode vector(packetBytes)
attr source packetDropReasonIsNoRouteFound(packetDropped)
attr title "packet drop: no route found, packetBytes"
vector 213 Scenario.node[2].ipv4.ip packetDropUndefined:vector(packetBytes) ETV
attr interpolationmode none
attr recordingmode vector(packetBytes)
attr source packetDropReasonIsUndefined(packetDropped)
attr title "packet drop: undefined, packetBytes"
vector 214 Scenario.node[2].ipv4.arp arpRequestSent:vector(packetBytes) ETV
attr recordingmode vector(packetBytes)
attr source arpRequestSent
attr title "ARP request sent, packetBytes"
vector 215 Scenario.node[2].ipv4.arp arpReplySent:vector(packetBytes) ETV
attr recordingmode vector(packetBytes)
attr source arpReplySent
attr title "ARP replies sent, packetBytes"
vector 216 Scenario.node[2].udp packetSent:vector(packetBytes) ETV
attr interpolationmode none
attr recordingmode vector(packetBytes)
attr source packetSent
attr title "packets sent, packetBytes"
vector 217 Scenario.node[2].udp packetReceived:vector(packetBytes) ETV
attr interpolationmode none
attr recordingmode vector(packetBytes)
attr source packetReceived
attr title "packets received, packetBytes"
vector 218 Scenario.node[2].udp passedUpPk:vector(count) ETV
attr interpolationmode none
attr recordingmode vector(count)
attr source packetSentToUpper
attr title "packets passed up, count"
vector 219 Scenario.node[2].udp droppedPkWrongPort:vector(count) ETV
attr interpolationmode none
attr recordingmode vector(count)
attr source packetDropReasonIsNoPortFound(packetDropped)
attr title "packets dropped (wrong port), count"
vector 220 Scenario.node[2].udp droppedPkBadChecksum:vector(count) ETV
attr interpolationmode none
attr recordingmode vector(count)
attr source packetDropReasonIsIncorrectlyReceived(packetDropped)
attr title "packets dropped (checksum error), count"
vector 221 Scenario.node[2].app[0] packetReceived:vector(packetBytes) ETV
attr interpolationmode none
attr recordingmode vector(packetBytes)
attr source packetReceived
attr title "packets received, packetBytes"
vector 222 Scenario.node[2].app[0] throughput:vector ETV
attr recordingmode vector
attr source throughput(packetReceived)
attr title throughput
attr unit bps
vector 223 Scenario.node[2].app[0] packetSent:vector(packetBytes) ETV
attr interpolationmode none
attr recordingmode vector(packetBytes)
attr source packetSent
attr title "packets sent, packetBytes"
vector 224 Scenario.node[2].app[0] rcvdPkLifetime:vector ETV
attr interpolationmode none
attr recordingmode vector
attr source dataAge(packetReceived)
attr title "received packet lifetime"
attr unit s
142	240	20.000152182948	108
142	248	20.000152182948	108
141	242	20.000152182948	108
143	55	5.1	0
143	240	20.000152182948	1
143	248	20.000152182948	2
144	55	5.1	0
145	55	5.1	0
75	244	20.000152182948	128
76	244	20.000152182948	128
81	252	20.000236182948	8.4e-05
84	252	20.000236182948	1264
85	252	5.2	0
85	252	5.3	0
85	252	5.4	0
85	252	5.5	0
85	252	5.6	0
85	252	5.7	0
85	252	5.8	0
85	252	5.9	0
85	252	6	0
85	252	6.1	0
85	252	6.2	0
85	252	6.3	0
85	252	6.4	0
85	252	6.5	0
85	252	6.6	0
85	252	6.7	0
85	252	6.8	0
85	252	6.9	0
85	252	7	0
85	252	7.1	0
85	252	7.2	0
85	252	7.3	0
85	252	7.4	0
85	252	7.5	0
85	252	7.6	0
85	252	7.7	0
85	252	7.8	0
85	252	7.9	0
85	252	8	0
85	252	8.1	0
85	252	8.2	0
85	252	8.3	0
85	252	8.4	0
85	252	8.5	0
85	252	8.6	0
85	252	8.7	0
85	252	8.8	0
85	252	8.9	0
85	252	9	0
85	252	9.1	0
85	252	9.2	0
85	252	9.3	0
85	252	9.4	0
85	252	9.5	0
85	252	9.6	0
85	252	9.7	0
85	252	9.8	0
85	252	9.9	0
85	252	10	0
85	252	10.1	0
85	252	10.2	0
85	252	10.3	0
85	252	10.4	0
85	252	10.5	0
85	252	10.6	0
85	252	10.7	0
85	252	10.8	0
85	252	10.9	0
85	252	11	0
85	252	11.1	0
85	252	11.2	0
85	252	11.3	0
85	252	11.4	0
85	252	11.5	0
85	252	11.6	0
85	252	11.7	0
85	252	11.8	0
85	252	11.9	0
85	252	12	0
85	252	12.1	0
85	252	12.2	0
85	252	12.3	0
85	252	12.4	0
85	252	12.5	0
85	252	12.6	0
85	252	12.7	0
85	252	12.8	0
85	252	12.9	0
85	252	13	0
85	252	13.1	0
85	252	13.2	0
85	252	13.3	0
85	252	13.4	0
85	252	13.5	0
85	252	13.6	0
85	252	13.7	0
85	252	13.8	0
85	252	13.9	0
85	252	14	0
85	252	14.1	0
85	252	14.2	0
85	252	14.3	0
85	252	14.4	0
85	252	14.5	0
85	252	14.6	0
85	252	14.7	0
85	252	14.8	0
85	252	14.9	0
85	252	15	0
85	252	15.1	0
85	252	15.2	0
85	252	15.3	0
85	252	15.4	0
85	252	15.5	0
85	252	15.6	0
85	252	15.7	0
85	252	15.8	0
85	252	15.9	0
85	252	16	0
85	252	16.1	0
85	252	16.2	0
85	252	16.3	0
85	252	16.4	0
85	252	16.5	0
85	252	16.6	0
85	252	16.7	0
85	252	16.8	0
85	252	16.9	0
85	252	17	0
85	252	17.1	0
85	252	17.2	0
85	252	17.3	0
85	252	17.4	0
85	252	17.5	0
85	252	17.6	0
85	252	17.7	0
85	252	17.8	0
85	252	17.9	0
85	252	18	0
85	252	18.1	0
85	252	18.2	0
85	252	18.3	0
85	252	18.4	0
85	252	18.5	0
85	252	18.6	0
85	252	18.7	0
85	252	18.8	0
85	252	18.9	0
85	252	19	0
85	252	19.1	0
85	252	19.2	0
85	252	19.3	0
85	252	19.4	0
85	252	19.5	0
85	252	19.6	0
85	252	19.7	0
85	252	19.8	0
85	252	19.9	0
85	252	20	0
85	549	20.1	12640
85	549	20.2	0
85	549	20.3	0
85	549	20.4	0
85	549	20.5	0
85	549	20.6	0
85	549	20.7	0
85	549	20.8	0
85	549	20.9	0
85	549	21	0
85	549	21.1	0
85	549	21.2	0
85	549	21.3	0
85	549	21.4	0
85	549	21.5	0
85	549	21.6	0
85	549	21.7	0
85	549	21.8	0
85	549	21.9	0
85	549	22	0
85	549	22.1	0
85	549	22.2	0
85	549	22.3	0
85	549	22.4	0
85	549	22.5	0
85	549	22.6	0
85	549	22.7	0
85	549	22.8	0
85	549	22.9	0
85	549	23	0
85	549	23.1	0
85	549	23.2	0
85	549	23.3	0
85	549	23.4	0
85	549	23.5	0
85	549	23.6	0
85	549	23.7	0
85	549	23.8	0
85	549	23.9	0
85	549	24	0
85	549	24.1	0
85	549	24.2	0
85	549	24.3	0
85	549	24.4	0
85	549	24.5	0
85	549	24.6	0
85	549	24.7	0
85	549	24.8	0
85	549	24.9	0
85	549	25	0
85	549	25.1	0
85	549	25.2	0
85	549	25.3	0
85	549	25.4	0
85	549	25.5	0
85	549	25.6	0
85	549	25.7	0
85	549	25.8	0
85	549	25.9	0
85	549	26	0
85	549	26.1	0
85	549	26.2	0
85	549	26.3	0
85	549	26.4	0
85	549	26.5	0
85	549	26.6	0
85	549	26.7	0
85	549	26.8	0
85	549	26.9	0
85	549	27	0
85	549	27.1	0
85	549	27.2	0
85	549	27.3	0
85	549	27.4	0
85	549	27.5	0
85	549	27.6	0
85	549	27.7	0
85	549	27.8	0
85	549	27.9	0
85	549	28	0
85	549	28.1	0
85	549	28.2	0
85	549	28.3	0
85	549	28.4	0
85	549	28.5	0
85	549	28.6	0
85	549	28.7	0
85	549	28.8	0
85	549	28.9	0
85	549	29	0
85	549	29.1	0
85	549	29.2	0
85	549	29.3	0
85	549	29.4	0
85	549	29.5	0
85	549	29.6	0
85	549	29.7	0
85	549	29.8	0
85	549	29.9	0
85	549	30	0
85	549	30.1	0
85	549	30.2	0
85	549	30.3	0
85	549	30.4	0
85	549	30.5	0
85	549	30.6	0
85	549	30.7	0
85	549	30.8	0
85	549	30.9	0
85	549	31	0
85	549	31.1	0
85	549	31.2	0
85	549	31.3	0
85	549	31.4	0
85	549	31.5	0
85	549	31.6	0
85	549	31.7	0
85	549	31.8	0
85	549	31.9	0
85	549	32	0
85	549	32.1	0
85	549	32.2	0
85	549	32.3	0
85	549	32.4	0
85	549	32.5	0
85	549	32.6	0
85	549	32.7	0
85	549	32.8	0
85	549	32.9	0
85	549	33	0
85	549	33.1	0
85	549	33.2	0
85	549	33.3	0
85	549	33.4	0
85	549	33.5	0
85	549	33.6	0
85	549	33.7	0
85	549	33.8	0
85	549	33.9	0
85	549	34	0
85	549	34.1	0
85	549	34.2	0
85	549	34.3	0
85	549	34.4	0
85	549	34.5	0
85	549	34.6	0
85	549	34.7	0
85	549	34.8	0
85	549	34.9	0
85	549	35	0
85	549	35.1	0
85	549	35.2	0
85	549	35.3	0
85	549	35.4	0
85	549	35.5	0
85	549	35.6	0
85	549	35.7	0
85	549	35.8	0
85	549	35.9	0
85	549	36	0
85	549	36.1	0
85	549	36.2	0
85	549	36.3	0
85	549	36.4	0
85	549	36.5	0
85	549	36.6	0
85	549	36.7	0
85	549	36.8	0
85	549	36.9	0
85	549	37	0
85	549	37.1	0
85	549	37.2	0
85	549	37.3	0
85	549	37.4	0
85	549	37.5	0
85	549	37.6	0
85	549	37.7	0
85	549	37.8	0
85	549	37.9	0
85	549	38	0
85	549	38.1	0
85	549	38.2	0
85	549	38.3	0
85	549	38.4	0
85	549	38.5	0
85	549	38.6	0
85	549	38.7	0
85	549	38.8	0
85	549	38.9	0
85	549	39	0
85	549	39.1	0
85	549	39.2	0
85	549	39.3	0
85	549	39.4	0
85	549	39.5	0
85	549	39.6	0
85	549	39.7	0
85	549	39.8	0
85	549	39.9	0
85	549	40	0
85	549	40.1	0
85	549	40.2	0
85	549	40.3	0
85	549	40.4	0
85	549	40.5	0
85	549	40.6	0
85	549	40.7	0
85	549	40.8	0
85	549	40.9	0
85	549	41	0
85	549	41.1	0
85	549	41.2	0
85	549	41.3	0
85	549	41.4	0
85	549	41.5	0
85	549	41.6	0
85	549	41.7	0
85	549	41.8	0
85	549	41.9	0
85	549	42	0
85	549	42.1	0
85	549	42.2	0
85	549	42.3	0
85	549	42.4	0
85	549	42.5	0
85	549	42.6	0
85	549	42.7	0
85	549	42.8	0
85	549	42.9	0
85	549	43	0
85	549	43.1	0
85	549	43.2	0
85	549	43.3	0
85	549	43.4	0
85	549	43.5	0
85	549	43.6	0
85	549	43.7	0
85	549	43.8	0
85	549	43.9	0
85	549	44	0
85	549	44.1	0
85	549	44.2	0
85	549	44.3	0
85	549	44.4	0
85	549	44.5	0
85	549	44.6	0
82	247	20.000152182948	1264
83	247	5.2	0
83	247	5.3	0
83	247	5.4	0
83	247	5.5	0
83	247	5.6	0
83	247	5.7	0
83	247	5.8	0
83	247	5.9	0
83	247	6	0
83	247	6.1	0
83	247	6.2	0
83	247	6.3	0
83	247	6.4	0
83	247	6.5	0
83	247	6.6	0
83	247	6.7	0
83	247	6.8	0
83	247	6.9	0
83	247	7	0
83	247	7.1	0
83	247	7.2	0
83	247	7.3	0
83	247	7.4	0
83	247	7.5	0
83	247	7.6	0
83	247	7.7	0
83	247	7.8	0
83	247	7.9	0
83	247	8	0
83	247	8.1	0
83	247	8.2	0
83	247	8.3	0
83	247	8.4	0
83	247	8.5	0
83	247	8.6	0
83	247	8.7	0
83	247	8.8	0
83	247	8.9	0
83	247	9	0
83	247	9.1	0
83	247	9.2	0
83	247	9.3	0
83	247	9.4	0
83	247	9.5	0
83	247	9.6	0
83	247	9.7	0
83	247	9.8	0
83	247	9.9	0
83	247	10	0
83	247	10.1	0
83	247	10.2	0
83	247	10.3	0
83	247	10.4	0
83	247	10.5	0
83	247	10.6	0
83	247	10.7	0
83	247	10.8	0
83	247	10.9	0
83	247	11	0
83	247	11.1	0
83	247	11.2	0
83	247	11.3	0
83	247	11.4	0
83	247	11.5	0
83	247	11.6	0
83	247	11.7	0
83	247	11.8	0
83	247	11.9	0
83	247	12	0
83	247	12.1	0
83	247	12.2	0
83	247	12.3	0
83	247	12.4	0
83	247	12.5	0
83	247	12.6	0
83	247	12.7	0
83	247	12.8	0
83	247	12.9	0
83	247	13	0
83	247	13.1	0
83	247	13.2	0
83	247	13.3	0
83	247	13.4	0
83	247	13.5	0
83	247	13.6	0
83	247	13.7	0
83	247	13.8	0
83	247	13.9	0
83	247	14	0
83	247	14.1	0
83	247	14.2	0
83	247	14.3	0
83	247	14.4	0
83	247	14.5	0
83	247	14.6	0
83	247	14.7	0
83	247	14.8	0
83	247	14.9	0
83	247	15	0
83	247	15.1	0
83	247	15.2	0
83	247	15.3	0
83	247	15.4	0
83	247	15.5	0
83	247	15.6	0
83	247	15.7	0
83	247	15.8	0
83	247	15.9	0
83	247	16	0
83	247	16.1	0
83	247	16.2	0
83	247	16.3	0
83	247	16.4	0
83	247	16.5	0
83	247	16.6	0
83	247	16.7	0
83	247	16.8	0
83	247	16.9	0
83	247	17	0
83	247	17.1	0
83	247	17.2	0
83	247	17.3	0
83	247	17.4	0
83	247	17.5	0
83	247	17.6	0
83	247	17.7	0
83	247	17.8	0
83	247	17.9	0
83	247	18	0
83	247	18.1	0
83	247	18.2	0
83	247	18.3	0
83	247	18.4	0
83	247	18.5	0
83	247	18.6	0
83	247	18.7	0
83	247	18.8	0
83	247	18.9	0
83	247	19	0
83	247	19.1	0
83	247	19.2	0
83	247	19.3	0
83	247	19.4	0
83	247	19.5	0
83	247	19.6	0
83	247	19.7	0
83	247	19.8	0
83	247	19.9	0
83	247	20	0
83	549	20.1	12640
83	549	20.2	0
83	549	20.3	0
83	549	20.4	0
83	549	20.5	0
83	549	20.6	0
83	549	20.7	0
83	549	20.8	0
83	549	20.9	0
83	549	21	0
83	549	21.1	0
83	549	21.2	0
83	549	21.3	0
83	549	21.4	0
83	549	21.5	0
83	549	21.6	0
83	549	21.7	0
83	549	21.8	0
83	549	21.9	0
83	549	22	0
83	549	22.1	0
83	549	22.2	0
83	549	22.3	0
83	549	22.4	0
83	549	22.5	0
83	549	22.6	0
83	549	22.7	0
83	549	22.8	0
83	549	22.9	0
83	549	23	0
83	549	23.1	0
83	549	23.2	0
83	549	23.3	0
83	549	23.4	0
83	549	23.5	0
83	549	23.6	0
83	549	23.7	0
83	549	23.8	0
83	549	23.9	0
83	549	24	0
83	549	24.1	0
83	549	24.2	0
83	549	24.3	0
83	549	24.4	0
83	549	24.5	0
83	549	24.6	0
83	549	24.7	0
83	549	24.8	0
83	549	24.9	0
83	549	25	0
83	549	25.1	0
83	549	25.2	0
83	549	25.3	0
83	549	25.4	0
83	549	25.5	0
83	549	25.6	0
83	549	25.7	0
83	549	25.8	0
83	549	25.9	0
83	549	26	0
83	549	26.1	0
83	549	26.2	0
83	549	26.3	0
83	549	26.4	0
83	549	26.5	0
83	549	26.6	0
83	549	26.7	0
83	549	26.8	0
83	549	26.9	0
83	549	27	0
83	549	27.1	0
83	549	27.2	0
83	549	27.3	0
83	549	27.4	0
83	549	27.5	0
83	549	27.6	0
83	549	27.7	0
83	549	27.8	0
83	549	27.9	0
83	549	28	0
83	549	28.1	0
83	549	28.2	0
83	549	28.3	0
83	549	28.4	0
83	549	28.5	0
83	549	28.6	0
83	549	28.7	0
83	549	28.8	0
83	549	28.9	0
83	549	29	0
83	549	29.1	0
83	549	29.2	0
83	549	29.3	0
83	549	29.4	0
83	549	29.5	0
83	549	29.6	0
83	549	29.7	0
83	549	29.8	0
83	549	29.9	0
83	549	30	0
83	549	30.1	0
83	549	30.2	0
83	549	30.3	0
83	549	30.4	0
83	549	30.5	0
83	549	30.6	0
83	549	30.7	0
83	549	30.8	0
83	549	30.9	0
83	549	31	0
83	549	31.1	0
83	549	31.2	0
83	549	31.3	0
83	549	31.4	0
83	549	31.5	0
83	549	31.6	0
83	549	31.7	0
83	549	31.8	0
83	549	31.9	0
83	549	32	0
83	549	32.1	0
83	549	32.2	0
83	549	32.3	0
83	549	32.4	0
83	549	32.5	0
83	549	32.6	0
83	549	32.7	0
83	549	32.8	0
83	549	32.9	0
83	549	33	0
83	549	33.1	0
83	549	33.2	0
83	549	33.3	0
83	549	33.4	0
83	549	33.5	0
83	549	33.6	0
83	549	33.7	0
83	549	33.8	0
83	549	33.9	0
83	549	34	0
83	549	34.1	0
83	549	34.2	0
83	549	34.3	0
83	549	34.4	0
83	549	34.5	0
83	549	34.6	0
83	549	34.7	0
83	549	34.8	0
83	549	34.9	0
83	549	35	0
83	549	35.1	0
83	549	35.2	0
83	549	35.3	0
83	549	35.4	0
83	549	35.5	0
83	549	35.6	0
83	549	35.7	0
83	549	35.8	0
83	549	35.9	0
83	549	36	0
83	549	36.1	0
83	549	36.2	0
83	549	36.3	0
83	549	36.4	0
83	549	36.5	0
83	549	36.6	0
83	549	36.7	0
83	549	36.8	0
83	549	36.9	0
83	549	37	0
83	549	37.1	0
83	549	37.2	0
83	549	37.3	0
83	549	37.4	0
83	549	37.5	0
83	549	37.6	0
83	549	37.7	0
83	549	37.8	0
83	549	37.9	0
83	549	38	0
83	549	38.1	0
83	549	38.2	0
83	549	38.3	0
83	549	38.4	0
83	549	38.5	0
83	549	38.6	0
83	549	38.7	0
83	549	38.8	0
83	549	38.9	0
83	549	39	0
83	549	39.1	0
83	549	39.2	0
83	549	39.3	0
83	549	39.4	0
83	549	39.5	0
83	549	39.6	0
83	549	39.7	0
83	549	39.8	0
83	549	39.9	0
83	549	40	0
83	549	40.1	0
83	549	40.2	0
83	549	40.3	0
83	549	40.4	0
83	549	40.5	0
83	549	40.6	0
83	549	40.7	0
83	549	40.8	0
83	549	40.9	0
83	549	41	0
83	549	41.1	0
83	549	41.2	0
83	549	41.3	0
83	549	41.4	0
83	549	41.5	0
83	549	41.6	0
83	549	41.7	0
83	549	41.8	0
83	549	41.9	0
83	549	42	0
83	549	42.1	0
83	549	42.2	0
83	549	42.3	0
83	549	42.4	0
83	549	42.5	0
83	549	42.6	0
83	549	42.7	0
83	549	42.8	0
83	549	42.9	0
83	549	43	0
83	549	43.1	0
83	549	43.2	0
83	549	43.3	0
83	549	43.4	0
83	549	43.5	0
83	549	43.6	0
83	549	43.7	0
83	549	43.8	0
83	549	43.9	0
83	549	44	0
83	549	44.1	0
83	549	44.2	0
83	549	44.3	0
83	549	44.4	0
83	549	44.5	0
83	549	44.6	0
79	55	5.1	0
79	55	5.1	0
79	55	5.1	0
79	55	5.1	0
79	55	5.1	0
79	247	20.000152182948	1
79	252	20.000236182948	0
80	55	5.1	0
80	55	5.1	0
80	55	5.1	0
80	55	5.1	0
80	55	5.1	0
80	247	20.000152182948	1264
80	252	20.000236182948	0
90	257	20.000388182948	0.000152
91	55	5.1	0
91	55	5.1	0
91	252	20.000236182948	1
91	257	20.000388182948	0
93	55	5.1	0
93	55	5.1	0
93	247	20.000152182948	1
93	251	20.000236182948	0
92	247	20.000152182948	2
94	55	5.1	0
94	55	5.1	0
94	232	20.000000182948	0
94	232	20.000000182948	0
94	236	20.000152182948	0
94	236	20.000152182948	0
94	247	20.000152182948	0
94	247	20.000152182948	2
94	251	20.000236182948	2
94	251	20.000236182948	0
94	253	20.000236182948	0
94	253	20.000236182948	0
94	258	20.000388182948	0
94	258	20.000388182948	0
94	283	20.000485548844	0
94	283	20.000485548844	0
94	294	20.000637548844	0
94	294	20.000637548844	0
94	298	20.000650642496	0
94	298	20.000650642496	0
96	55	5.1	15
114	252	20.000236182948	12000000
113	55	5.1	0
113	55	5.1	0
113	252	20.000236182948	1
113	257	20.000388182948	0
103	237	20.000152182948	158
105	237	20.000152182948	158
108	237	20.000152182948	158
97	257	20.000388182948	158
99	257	20.000388182948	158
102	257	20.000388182948	158
119	237	20.000152182948	158
119	294	20.000637548844	158
117	252	20.000236182948	158
118	247	20.000152182948	130
116	237	20.000152182948	130
120	294	20.000637548844	158
121	294	20.000637548844	158
130	55	5.1	3
127	55	5.1	0
127	55	5.1	0
127	55	5.1	2
127	253	20.000236182948	3
127	258	20.000388182948	2
128	55	5.1	1
128	232	20.000000182948	3
128	236	20.000152182948	1
128	253	20.000236182948	0
128	258	20.000388182948	1
128	283	20.000485548844	3
128	293	20.000637548844	2
128	298	20.000650642496	1
129	253	20.000236182948	1
129	254	20.000236182948	2
129	257	20.000388182948	1
129	258	20.000388182948	0
146	241	20.000152182948	100
146	249	20.000152182948	100
147	241	5.2	0
147	241	5.3	0
147	241	5.4	0
147	241	5.5	0
147	241	5.6	0
147	241	5.7	0
147	241	5.8	0
147	241	5.9	0
147	241	6	0
147	241	6.1	0
147	241	6.2	0
147	241	6.3	0
147	241	6.4	0
147	241	6.5	0
147	241	6.6	0
147	241	6.7	0
147	241	6.8	0
147	241	6.9	0
147	241	7	0
147	241	7.1	0
147	241	7.2	0
147	241	7.3	0
147	241	7.4	0
147	241	7.5	0
147	241	7.6	0
147	241	7.7	0
147	241	7.8	0
147	241	7.9	0
147	241	8	0
147	241	8.1	0
147	241	8.2	0
147	241	8.3	0
147	241	8.4	0
147	241	8.5	0
147	241	8.6	0
147	241	8.7	0
147	241	8.8	0
147	241	8.9	0
147	241	9	0
147	241	9.1	0
147	241	9.2	0
147	241	9.3	0
147	241	9.4	0
147	241	9.5	0
147	241	9.6	0
147	241	9.7	0
147	241	9.8	0
147	241	9.9	0
147	241	10	0
147	241	10.1	0
147	241	10.2	0
147	241	10.3	0
147	241	10.4	0
147	241	10.5	0
147	241	10.6	0
147	241	10.7	0
147	241	10.8	0
147	241	10.9	0
147	241	11	0
147	241	11.1	0
147	241	11.2	0
147	241	11.3	0
147	241	11.4	0
147	241	11.5	0
147	241	11.6	0
147	241	11.7	0
147	241	11.8	0
147	241	11.9	0
147	241	12	0
147	241	12.1	0
147	241	12.2	0
147	241	12.3	0
147	241	12.4	0
147	241	12.5	0
147	241	12.6	0
147	241	12.7	0
147	241	12.8	0
147	241	12.9	0
147	241	13	0
147	241	13.1	0
147	241	13.2	0
147	241	13.3	0
147	241	13.4	0
147	241	13.5	0
147	241	13.6	0
147	241	13.7	0
147	241	13.8	0
147	241	13.9	0
147	241	14	0
147	241	14.1	0
147	241	14.2	0
147	241	14.3	0
147	241	14.4	0
147	241	14.5	0
147	241	14.6	0
147	241	14.7	0
147	241	14.8	0
147	241	14.9	0
147	241	15	0
147	241	15.1	0
147	241	15.2	0
147	241	15.3	0
147	241	15.4	0
147	241	15.5	0
147	241	15.6	0
147	241	15.7	0
147	241	15.8	0
147	241	15.9	0
147	241	16	0
147	241	16.1	0
147	241	16.2	0
147	241	16.3	0
147	241	16.4	0
147	241	16.5	0
147	241	16.6	0
147	241	16.7	0
147	241	16.8	0
147	241	16.9	0
147	241	17	0
147	241	17.1	0
147	241	17.2	0
147	241	17.3	0
147	241	17.4	0
147	241	17.5	0
147	241	17.6	0
147	241	17.7	0
147	241	17.8	0
147	241	17.9	0
147	241	18	0
147	241	18.1	0
147	241	18.2	0
147	241	18.3	0
147	241	18.4	0
147	241	18.5	0
147	241	18.6	0
147	241	18.7	0
147	241	18.8	0
147	241	18.9	0
147	241	19	0
147	241	19.1	0
147	241	19.2	0
147	241	19.3	0
147	241	19.4	0
147	241	19.5	0
147	241	19.6	0
147	241	19.7	0
147	241	19.8	0
147	241	19.9	0
147	241	20	0
147	549	20.1	16000
147	549	20.2	0
147	549	20.3	0
147	549	20.4	0
147	549	20.5	0
147	549	20.6	0
147	549	20.7	0
147	549	20.8	0
147	549	20.9	0
147	549	21	0
147	549	21.1	0
147	549	21.2	0
147	549	21.3	0
147	549	21.4	0
147	549	21.5	0
147	549	21.6	0
147	549	21.7	0
147	549	21.8	0
147	549	21.9	0
147	549	22	0
147	549	22.1	0
147	549	22.2	0
147	549	22.3	0
147	549	22.4	0
147	549	22.5	0
147	549	22.6	0
147	549	22.7	0
147	549	22.8	0
147	549	22.9	0
147	549	23	0
147	549	23.1	0
147	549	23.2	0
147	549	23.3	0
147	549	23.4	0
147	549	23.5	0
147	549	23.6	0
147	549	23.7	0
147	549	23.8	0
147	549	23.9	0
147	549	24	0
147	549	24.1	0
147	549	24.2	0
147	549	24.3	0
147	549	24.4	0
147	549	24.5	0
147	549	24.6	0
147	549	24.7	0
147	549	24.8	0
147	549	24.9	0
147	549	25	0
147	549	25.1	0
147	549	25.2	0
147	549	25.3	0
147	549	25.4	0
147	549	25.5	0
147	549	25.6	0
147	549	25.7	0
147	549	25.8	0
147	549	25.9	0
147	549	26	0
147	549	26.1	0
147	549	26.2	0
147	549	26.3	0
147	549	26.4	0
147	549	26.5	0
147	549	26.6	0
147	549	26.7	0
147	549	26.8	0
147	549	26.9	0
147	549	27	0
147	549	27.1	0
147	549	27.2	0
147	549	27.3	0
147	549	27.4	0
147	549	27.5	0
147	549	27.6	0
147	549	27.7	0
147	549	27.8	0
147	549	27.9	0
147	549	28	0
147	549	28.1	0
147	549	28.2	0
147	549	28.3	0
147	549	28.4	0
147	549	28.5	0
147	549	28.6	0
147	549	28.7	0
147	549	28.8	0
147	549	28.9	0
147	549	29	0
147	549	29.1	0
147	549	29.2	0
147	549	29.3	0
147	549	29.4	0
147	549	29.5	0
147	549	29.6	0
147	549	29.7	0
147	549	29.8	0
147	549	29.9	0
147	549	30	0
147	549	30.1	0
147	549	30.2	0
147	549	30.3	0
147	549	30.4	0
147	549	30.5	0
147	549	30.6	0
147	549	30.7	0
147	549	30.8	0
147	549	30.9	0
147	549	31	0
147	549	31.1	0
147	549	31.2	0
147	549	31.3	0
147	549	31.4	0
147	549	31.5	0
147	549	31.6	0
147	549	31.7	0
147	549	31.8	0
147	549	31.9	0
147	549	32	0
147	549	32.1	0
147	549	32.2	0
147	549	32.3	0
147	549	32.4	0
147	549	32.5	0
147	549	32.6	0
147	549	32.7	0
147	549	32.8	0
147	549	32.9	0
147	549	33	0
147	549	33.1	0
147	549	33.2	0
147	549	33.3	0
147	549	33.4	0
147	549	33.5	0
147	549	33.6	0
147	549	33.7	0
147	549	33.8	0
147	549	33.9	0
147	549	34	0
147	549	34.1	0
147	549	34.2	0
147	549	34.3	0
147	549	34.4	0
147	549	34.5	0
147	549	34.6	0
147	549	34.7	0
147	549	34.8	0
147	549	34.9	0
147	549	35	0
147	549	35.1	0
147	549	35.2	0
147	549	35.3	0
147	549	35.4	0
147	549	35.5	0
147	549	35.6	0
147	549	35.7	0
147	549	35.8	0
147	549	35.9	0
147	549	36	0
147	549	36.1	0
147	549	36.2	0
147	549	36.3	0
147	549	36.4	0
147	549	36.5	0
147	549	36.6	0
147	549	36.7	0
147	549	36.8	0
147	549	36.9	0
147	549	37	0
147	549	37.1	0
147	549	37.2	0
147	549	37.3	0
147	549	37.4	0
147	549	37.5	0
147	549	37.6	0
147	549	37.7	0
147	549	37.8	0
147	549	37.9	0
147	549	38	0
147	549	38.1	0
147	549	38.2	0
147	549	38.3	0
147	549	38.4	0
147	549	38.5	0
147	549	38.6	0
147	549	38.7	0
147	549	38.8	0
147	549	38.9	0
147	549	39	0
147	549	39.1	0
147	549	39.2	0
147	549	39.3	0
147	549	39.4	0
147	549	39.5	0
147	549	39.6	0
147	549	39.7	0
147	549	39.8	0
147	549	39.9	0
147	549	40	0
147	549	40.1	0
147	549	40.2	0
147	549	40.3	0
147	549	40.4	0
147	549	40.5	0
147	549	40.6	0
147	549	40.7	0
147	549	40.8	0
147	549	40.9	0
147	549	41	0
147	549	41.1	0
147	549	41.2	0
147	549	41.3	0
147	549	41.4	0
147	549	41.5	0
147	549	41.6	0
147	549	41.7	0
147	549	41.8	0
147	549	41.9	0
147	549	42	0
147	549	42.1	0
147	549	42.2	0
147	549	42.3	0
147	549	42.4	0
147	549	42.5	0
147	549	42.6	0
147	549	42.7	0
147	549	42.8	0
147	549	42.9	0
147	549	43	0
147	549	43.1	0
147	549	43.2	0
147	549	43.3	0
147	549	43.4	0
147	549	43.5	0
147	549	43.6	0
147	549	43.7	0
147	549	43.8	0
147	549	43.9	0
147	549	44	0
147	549	44.1	0
147	549	44.2	0
147	549	44.3	0
147	549	44.4	0
147	549	44.5	0
147	549	44.6	0
149	241	20.000152182948	0.000152182948
149	249	20.000152182948	0.000152182948
148	241	20.000152182948	100
217	269	20.000388412722	108
217	277	20.000388412722	108
216	271	20.000388412722	108
218	108	10.1	0
218	269	20.000388412722	1
218	277	20.000388412722	2
219	108	10.1	0
220	108	10.1	0
150	273	20.000388412722	128
151	273	20.000388412722	128
156	286	20.000498412722	0.00011
159	286	20.000498412722	1264
160	286	10.2	0
160	286	10.3	0
160	286	10.4	0
160	286	10.5	0
160	286	10.6	0
160	286	10.7	0
160	286	10.8	0
160	286	10.9	0
160	286	11	0
160	286	11.1	0
160	286	11.2	0
160	286	11.3	0
160	286	11.4	0
160	286	11.5	0
160	286	11.6	0
160	286	11.7	0
160	286	11.8	0
160	286	11.9	0
160	286	12	0
160	286	12.1	0
160	286	12.2	0
160	286	12.3	0
160	286	12.4	0
160	286	12.5	0
160	286	12.6	0
160	286	12.7	0
160	286	12.8	0
160	286	12.9	0
160	286	13	0
160	286	13.1	0
160	286	13.2	0
160	286	13.3	0
160	286	13.4	0
160	286	13.5	0
160	286	13.6	0
160	286	13.7	0
160	286	13.8	0
160	286	13.9	0
160	286	14	0
160	286	14.1	0
160	286	14.2	0
160	286	14.3	0
160	286	14.4	0
160	286	14.5	0
160	286	14.6	0
160	286	14.7	0
160	286	14.8	0
160	286	14.9	0
160	286	15	0
160	286	15.1	0
160	286	15.2	0
160	286	15.3	0
160	286	15.4	0
160	286	15.5	0
160	286	15.6	0
160	286	15.7	0
160	286	15.8	0
160	286	15.9	0
160	286	16	0
160	286	16.1	0
160	286	16.2	0
160	286	16.3	0
160	286	16.4	0
160	286	16.5	0
160	286	16.6	0
160	286	16.7	0
160	286	16.8	0
160	286	16.9	0
160	286	17	0
160	286	17.1	0
160	286	17.2	0
160	286	17.3	0
160	286	17.4	0
160	286	17.5	0
160	286	17.6	0
160	286	17.7	0
160	286	17.8	0
160	286	17.9	0
160	286	18	0
160	286	18.1	0
160	286	18.2	0
160	286	18.3	0
160	286	18.4	0
160	286	18.5	0
160	286	18.6	0
160	286	18.7	0
160	286	18.8	0
160	286	18.9	0
160	286	19	0
160	286	19.1	0
160	286	19.2	0
160	286	19.3	0
160	286	19.4	0
160	286	19.5	0
160	286	19.6	0
160	286	19.7	0
160	286	19.8	0
160	286	19.9	0
160	286	20	0
160	597	20.1	12640
160	597	20.2	0
160	597	20.3	0
160	597	20.4	0
160	597	20.5	0
160	597	20.6	0
160	597	20.7	0
160	597	20.8	0
160	597	20.9	0
160	597	21	0
160	597	21.1	0
160	597	21.2	0
160	597	21.3	0
160	597	21.4	0
160	597	21.5	0
160	597	21.6	0
160	597	21.7	0
160	597	21.8	0
160	597	21.9	0
160	597	22	0
160	597	22.1	0
160	597	22.2	0
160	597	22.3	0
160	597	22.4	0
160	597	22.5	0
160	597	22.6	0
160	597	22.7	0
160	597	22.8	0
160	597	22.9	0
160	597	23	0
160	597	23.1	0
160	597	23.2	0
160	597	23.3	0
160	597	23.4	0
160	597	23.5	0
160	597	23.6	0
160	597	23.7	0
160	597	23.8	0
160	597	23.9	0
160	597	24	0
160	597	24.1	0
160	597	24.2	0
160	597	24.3	0
160	597	24.4	0
160	597	24.5	0
160	597	24.6	0
160	597	24.7	0
160	597	24.8	0
160	597	24.9	0
160	597	25	0
160	597	25.1	0
160	597	25.2	0
160	597	25.3	0
160	597	25.4	0
160	597	25.5	0
160	597	25.6	0
160	597	25.7	0
160	597	25.8	0
160	597	25.9	0
160	597	26	0
160	597	26.1	0
160	597	26.2	0
160	597	26.3	0
160	597	26.4	0
160	597	26.5	0
160	597	26.6	0
160	597	26.7	0
160	597	26.8	0
160	597	26.9	0
160	597	27	0
160	597	27.1	0
160	597	27.2	0
160	597	27.3	0
160	597	27.4	0
160	597	27.5	0
160	597	27.6	0
160	597	27.7	0
160	597	27.8	0
160	597	27.9	0
160	597	28	0
160	597	28.1	0
160	597	28.2	0
160	597	28.3	0
160	597	28.4	0
160	597	28.5	0
160	597	28.6	0
160	597	28.7	0
160	597	28.8	0
160	597	28.9	0
160	597	29	0
160	597	29.1	0
160	597	29.2	0
160	597	29.3	0
160	597	29.4	0
160	597	29.5	0
160	597	29.6	0
160	597	29.7	0
160	597	29.8	0
160	597	29.9	0
160	597	30	0
160	597	30.1	0
160	597	30.2	0
160	597	30.3	0
160	597	30.4	0
160	597	30.5	0
160	597	30.6	0
160	597	30.7	0
160	597	30.8	0
160	597	30.9	0
160	597	31	0
160	597	31.1	0
160	597	31.2	0
160	597	31.3	0
160	597	31.4	0
160	597	31.5	0
160	597	31.6	0
160	597	31.7	0
160	597	31.8	0
160	597	31.9	0
160	597	32	0
[...]
10	676	36	0
10	676	36.1	0
10	676	36.2	0
10	676	36.3	0
10	676	36.4	0
10	676	36.5	0
10	676	36.6	0
10	676	36.7	0
10	676	36.8	0
10	676	36.9	0
10	676	37	0
10	676	37.1	0
10	676	37.2	0
10	676	37.3	0
10	676	37.4	0
10	676	37.5	0
10	676	37.6	0
10	676	37.7	0
10	676	37.8	0
10	676	37.9	0
10	676	38	0
10	676	38.1	0
10	676	38.2	0
10	676	38.3	0
10	676	38.4	0
10	676	38.5	0
10	676	38.6	0
10	676	38.7	0
10	676	38.8	0
10	676	38.9	0
10	676	39	0
10	676	39.1	0
10	676	39.2	0
10	676	39.3	0
10	676	39.4	0
10	676	39.5	0
10	676	39.6	0
10	676	39.7	0
10	676	39.8	0
10	676	39.9	0
10	676	40	0
10	676	40.1	0
10	676	40.2	0
10	676	40.3	0
10	676	40.4	0
10	676	40.5	0
10	676	40.6	0
10	676	40.7	0
10	676	40.8	0
10	676	40.9	0
10	676	41	0
10	676	41.1	0
10	676	41.2	0
10	676	41.3	0
10	676	41.4	0
10	676	41.5	0
10	676	41.6	0
10	676	41.7	0
10	676	41.8	0
10	676	41.9	0
10	676	42	0
10	676	42.1	0
10	676	42.2	0
10	676	42.3	0
10	676	42.4	0
10	676	42.5	0
10	676	42.6	0
10	676	42.7	0
10	676	42.8	0
10	676	42.9	0
10	676	43	0
10	676	43.1	0
10	676	43.2	0
10	676	43.3	0
10	676	43.4	0
10	676	43.5	0
10	676	43.6	0
10	676	43.7	0
10	676	43.8	0
10	676	43.9	0
10	676	44	0
10	676	44.1	0
10	676	44.2	0
10	676	44.3	0
10	676	44.4	0
10	676	44.5	0
10	676	44.6	0
10	676	44.7	0
10	676	44.8	0
10	676	44.9	0
10	676	45	0
10	676	45.1	0
10	676	45.2	0
10	676	45.3	0
10	676	45.4	0
10	676	45.5	0
10	676	45.6	0
10	676	45.7	0
10	676	45.8	0
10	676	45.9	0
10	676	46	0
10	676	46.1	0
10	676	46.2	0
10	676	46.3	0
10	676	46.4	0
10	676	46.5	0
10	676	46.6	0
10	676	46.7	0
10	676	46.8	0
10	676	46.9	0
10	676	47	0
10	676	47.1	0
10	676	47.2	0
10	676	47.3	0
10	676	47.4	0
10	676	47.5	0
10	676	47.6	0
10	676	47.7	0
10	676	47.8	0
10	676	47.9	0
10	676	48	0
10	676	48.1	0
10	676	48.2	0
10	676	48.3	0
10	676	48.4	0
10	676	48.5	0
10	676	48.6	0
10	676	48.7	0
10	676	48.8	0
10	676	48.9	0
10	676	49	0
10	676	49.1	0
10	676	49.2	0
10	676	49.3	0
10	676	49.4	0
10	676	49.5	0
10	676	49.6	0
10	676	49.7	0
10	676	49.8	0
10	676	49.9	0
10	676	50	0
10	676	50.1	0
10	676	50.2	0
10	676	50.3	0
10	676	50.4	0
10	676	50.5	0
10	676	50.6	0
10	676	50.7	0
10	676	50.8	0
10	676	50.9	0
10	676	51	0
10	676	51.1	0
10	676	51.2	0
10	676	51.3	0
10	676	51.4	0
10	676	51.5	0
10	676	51.6	0
10	676	51.7	0
10	676	51.8	0
10	676	51.9	0
10	676	52	0
10	676	52.1	0
10	676	52.2	0
10	676	52.3	0
10	676	52.4	0
10	676	52.5	0
10	676	52.6	0
10	676	52.7	0
10	676	52.8	0
10	676	52.9	0
10	676	53	0
10	676	53.1	0
10	676	53.2	0
10	676	53.3	0
10	676	53.4	0
10	676	53.5	0
10	676	53.6	0
10	676	53.7	0
10	676	53.8	0
10	676	53.9	0
10	676	54	0
10	676	54.1	0
10	676	54.2	0
10	676	54.3	0
10	676	54.4	0
10	676	54.5	0
10	676	54.6	0
10	676	54.7	0
10	676	54.8	0
10	676	54.9	0
10	676	55	0
10	676	55.1	0
10	676	55.2	0
10	676	55.3	0
10	676	55.4	0
10	676	55.5	0
10	676	55.6	0
10	676	55.7	0
10	676	55.8	0
10	676	55.9	0
10	676	56	0
10	676	56.1	0
10	676	56.2	0
10	676	56.3	0
10	676	56.4	0
10	676	56.5	0
10	676	56.6	0
10	676	56.7	0
10	676	56.8	0
10	676	56.9	0
10	676	57	0
10	676	57.1	0
10	676	57.2	0
7	217	20	1264
7	225	20	1264
8	217	0.2	0
8	217	0.3	0
8	217	0.4	0
8	217	0.5	0
8	217	0.6	0
8	217	0.7	0
8	217	0.8	0
8	217	0.9	0
8	217	1	0
8	217	1.1	0
8	217	1.2	0
8	217	1.3	0
8	217	1.4	0
8	217	1.5	0
8	217	1.6	0
8	217	1.7	0
8	217	1.8	0
8	217	1.9	0
8	217	2	0
8	217	2.1	0
8	217	2.2	0
8	217	2.3	0
8	217	2.4	0
8	217	2.5	0
8	217	2.6	0
8	217	2.7	0
8	217	2.8	0
8	217	2.9	0
8	217	3	0
8	217	3.1	0
8	217	3.2	0
8	217	3.3	0
8	217	3.4	0
8	217	3.5	0
8	217	3.6	0
8	217	3.7	0
8	217	3.8	0
8	217	3.9	0
8	217	4	0
8	217	4.1	0
8	217	4.2	0
8	217	4.3	0
8	217	4.4	0
8	217	4.5	0
8	217	4.6	0
8	217	4.7	0
8	217	4.8	0
8	217	4.9	0
8	217	5	0
8	217	5.1	0
8	217	5.2	0
8	217	5.3	0
8	217	5.4	0
8	217	5.5	0
8	217	5.6	0
8	217	5.7	0
8	217	5.8	0
8	217	5.9	0
8	217	6	0
8	217	6.1	0
8	217	6.2	0
8	217	6.3	0
8	217	6.4	0
8	217	6.5	0
8	217	6.6	0
8	217	6.7	0
8	217	6.8	0
8	217	6.9	0
8	217	7	0
8	217	7.1	0
8	217	7.2	0
8	217	7.3	0
8	217	7.4	0
8	217	7.5	0
8	217	7.6	0
8	217	7.7	0
8	217	7.8	0
8	217	7.9	0
8	217	8	0
8	217	8.1	0
8	217	8.2	0
8	217	8.3	0
8	217	8.4	0
8	217	8.5	0
8	217	8.6	0
8	217	8.7	0
8	217	8.8	0
8	217	8.9	0
8	217	9	0
8	217	9.1	0
8	217	9.2	0
8	217	9.3	0
8	217	9.4	0
8	217	9.5	0
8	217	9.6	0
8	217	9.7	0
8	217	9.8	0
8	217	9.9	0
8	217	10	0
8	217	10.1	0
8	217	10.2	0
8	217	10.3	0
8	217	10.4	0
8	217	10.5	0
8	217	10.6	0
8	217	10.7	0
8	217	10.8	0
8	217	10.9	0
8	217	11	0
8	217	11.1	0
8	217	11.2	0
8	217	11.3	0
8	217	11.4	0
8	217	11.5	0
8	217	11.6	0
8	217	11.7	0
8	217	11.8	0
8	217	11.9	0
8	217	12	0
8	217	12.1	0
8	217	12.2	0
8	217	12.3	0
8	217	12.4	0
8	217	12.5	0
8	217	12.6	0
8	217	12.7	0
8	217	12.8	0
8	217	12.9	0
8	217	13	0
8	217	13.1	0
8	217	13.2	0
8	217	13.3	0
8	217	13.4	0
8	217	13.5	0
8	217	13.6	0
8	217	13.7	0
8	217	13.8	0
8	217	13.9	0
8	217	14	0
8	217	14.1	0
8	217	14.2	0
8	217	14.3	0
8	217	14.4	0
8	217	14.5	0
8	217	14.6	0
8	217	14.7	0
8	217	14.8	0
8	217	14.9	0
8	217	15	0
8	217	15.1	0
8	217	15.2	0
8	217	15.3	0
8	217	15.4	0
8	217	15.5	0
8	217	15.6	0
8	217	15.7	0
8	217	15.8	0
8	217	15.9	0
8	217	16	0
8	217	16.1	0
8	217	16.2	0
8	217	16.3	0
8	217	16.4	0
8	217	16.5	0
8	217	16.6	0
8	217	16.7	0
8	217	16.8	0
8	217	16.9	0
8	217	17	0
8	217	17.1	0
8	217	17.2	0
8	217	17.3	0
8	217	17.4	0
8	217	17.5	0
8	217	17.6	0
8	217	17.7	0
8	217	17.8	0
8	217	17.9	0
8	217	18	0
8	217	18.1	0
8	217	18.2	0
8	217	18.3	0
8	217	18.4	0
8	217	18.5	0
8	217	18.6	0
8	217	18.7	0
8	217	18.8	0
8	217	18.9	0
8	217	19	0
8	217	19.1	0
8	217	19.2	0
8	217	19.3	0
8	217	19.4	0
8	217	19.5	0
8	217	19.6	0
8	217	19.7	0
8	217	19.8	0
8	217	19.9	0
8	217	20	0
8	676	20.1	25280
8	676	20.2	0
8	676	20.3	0
8	676	20.4	0
8	676	20.5	0
8	676	20.6	0
8	676	20.7	0
8	676	20.8	0
8	676	20.9	0
8	676	21	0
8	676	21.1	0
8	676	21.2	0
8	676	21.3	0
8	676	21.4	0
8	676	21.5	0
8	676	21.6	0
8	676	21.7	0
8	676	21.8	0
8	676	21.9	0
8	676	22	0
8	676	22.1	0
8	676	22.2	0
8	676	22.3	0
8	676	22.4	0
8	676	22.5	0
8	676	22.6	0
8	676	22.7	0
8	676	22.8	0
8	676	22.9	0
8	676	23	0
8	676	23.1	0
8	676	23.2	0
8	676	23.3	0
8	676	23.4	0
8	676	23.5	0
8	676	23.6	0
8	676	23.7	0
8	676	23.8	0
8	676	23.9	0
8	676	24	0
8	676	24.1	0
8	676	24.2	0
8	676	24.3	0
8	676	24.4	0
8	676	24.5	0
8	676	24.6	0
8	676	24.7	0
8	676	24.8	0
8	676	24.9	0
8	676	25	0
8	676	25.1	0
8	676	25.2	0
8	676	25.3	0
8	676	25.4	0
8	676	25.5	0
8	676	25.6	0
8	676	25.7	0
8	676	25.8	0
8	676	25.9	0
8	676	26	0
8	676	26.1	0
8	676	26.2	0
8	676	26.3	0
8	676	26.4	0
8	676	26.5	0
8	676	26.6	0
8	676	26.7	0
8	676	26.8	0
8	676	26.9	0
8	676	27	0
8	676	27.1	0
8	676	27.2	0
8	676	27.3	0
8	676	27.4	0
8	676	27.5	0
8	676	27.6	0
8	676	27.7	0
8	676	27.8	0
8	676	27.9	0
8	676	28	0
8	676	28.1	0
8	676	28.2	0
8	676	28.3	0
8	676	28.4	0
8	676	28.5	0
8	676	28.6	0
8	676	28.7	0
8	676	28.8	0
8	676	28.9	0
8	676	29	0
8	676	29.1	0
8	676	29.2	0
8	676	29.3	0
8	676	29.4	0
8	676	29.5	0
8	676	29.6	0
8	676	29.7	0
8	676	29.8	0
8	676	29.9	0
8	676	30	0
8	676	30.1	0
8	676	30.2	0
8	676	30.3	0
8	676	30.4	0
8	676	30.5	0
8	676	30.6	0
8	676	30.7	0
8	676	30.8	0
8	676	30.9	0
8	676	31	0
8	676	31.1	0
8	676	31.2	0
8	676	31.3	0
8	676	31.4	0
8	676	31.5	0
8	676	31.6	0
8	676	31.7	0
8	676	31.8	0
8	676	31.9	0
8	676	32	0
8	676	32.1	0
8	676	32.2	0
8	676	32.3	0
8	676	32.4	0
8	676	32.5	0
8	676	32.6	0
8	676	32.7	0
8	676	32.8	0
8	676	32.9	0
8	676	33	0
8	676	33.1	0
8	676	33.2	0
8	676	33.3	0
8	676	33.4	0
8	676	33.5	0
8	676	33.6	0
8	676	33.7	0
8	676	33.8	0
8	676	33.9	0
8	676	34	0
8	676	34.1	0
8	676	34.2	0
8	676	34.3	0
8	676	34.4	0
8	676	34.5	0
8	676	34.6	0
8	676	34.7	0
8	676	34.8	0
8	676	34.9	0
8	676	35	0
8	676	35.1	0
8	676	35.2	0
8	676	35.3	0
8	676	35.4	0
8	676	35.5	0
8	676	35.6	0
8	676	35.7	0
8	676	35.8	0
8	676	35.9	0
8	676	36	0
8	676	36.1	0
8	676	36.2	0
8	676	36.3	0
8	676	36.4	0
8	676	36.5	0
8	676	36.6	0
8	676	36.7	0
8	676	36.8	0
8	676	36.9	0
8	676	37	0
8	676	37.1	0
8	676	37.2	0
8	676	37.3	0
8	676	37.4	0
8	676	37.5	0
8	676	37.6	0
8	676	37.7	0
8	676	37.8	0
8	676	37.9	0
8	676	38	0
8	676	38.1	0
8	676	38.2	0
8	676	38.3	0
8	676	38.4	0
8	676	38.5	0
8	676	38.6	0
8	676	38.7	0
8	676	38.8	0
8	676	38.9	0
8	676	39	0
8	676	39.1	0
8	676	39.2	0
8	676	39.3	0
8	676	39.4	0
8	676	39.5	0
8	676	39.6	0
8	676	39.7	0
8	676	39.8	0
8	676	39.9	0
8	676	40	0
8	676	40.1	0
8	676	40.2	0
8	676	40.3	0
8	676	40.4	0
8	676	40.5	0
8	676	40.6	0
8	676	40.7	0
8	676	40.8	0
8	676	40.9	0
8	676	41	0
8	676	41.1	0
8	676	41.2	0
8	676	41.3	0
8	676	41.4	0
8	676	41.5	0
8	676	41.6	0
8	676	41.7	0
8	676	41.8	0
8	676	41.9	0
8	676	42	0
8	676	42.1	0
8	676	42.2	0
8	676	42.3	0
8	676	42.4	0
8	676	42.5	0
8	676	42.6	0
8	676	42.7	0
8	676	42.8	0
8	676	42.9	0
8	676	43	0
8	676	43.1	0
8	676	43.2	0
8	676	43.3	0
8	676	43.4	0
8	676	43.5	0
8	676	43.6	0
8	676	43.7	0
8	676	43.8	0
8	676	43.9	0
8	676	44	0
8	676	44.1	0
8	676	44.2	0
8	676	44.3	0
8	676	44.4	0
8	676	44.5	0
8	676	44.6	0
8	676	44.7	0
8	676	44.8	0
8	676	44.9	0
8	676	45	0
8	676	45.1	0
8	676	45.2	0
8	676	45.3	0
8	676	45.4	0
8	676	45.5	0
8	676	45.6	0
8	676	45.7	0
8	676	45.8	0
8	676	45.9	0
8	676	46	0
8	676	46.1	0
8	676	46.2	0
8	676	46.3	0
8	676	46.4	0
8	676	46.5	0
8	676	46.6	0
8	676	46.7	0
8	676	46.8	0
8	676	46.9	0
8	676	47	0
8	676	47.1	0
8	676	47.2	0
8	676	47.3	0
8	676	47.4	0
8	676	47.5	0
8	676	47.6	0
8	676	47.7	0
8	676	47.8	0
8	676	47.9	0
8	676	48	0
8	676	48.1	0
8	676	48.2	0
8	676	48.3	0
8	676	48.4	0
8	676	48.5	0
8	676	48.6	0
8	676	48.7	0
8	676	48.8	0
8	676	48.9	0
8	676	49	0
8	676	49.1	0
8	676	49.2	0
8	676	49.3	0
8	676	49.4	0
8	676	49.5	0
8	676	49.6	0
8	676	49.7	0
8	676	49.8	0
8	676	49.9	0
8	676	50	0
8	676	50.1	0
8	676	50.2	0
8	676	50.3	0
8	676	50.4	0
8	676	50.5	0
8	676	50.6	0
8	676	50.7	0
8	676	50.8	0
8	676	50.9	0
8	676	51	0
8	676	51.1	0
8	676	51.2	0
8	676	51.3	0
8	676	51.4	0
8	676	51.5	0
8	676	51.6	0
8	676	51.7	0
8	676	51.8	0
8	676	51.9	0
8	676	52	0
8	676	52.1	0
8	676	52.2	0
8	676	52.3	0
8	676	52.4	0
8	676	52.5	0
8	676	52.6	0
8	676	52.7	0
8	676	52.8	0
8	676	52.9	0
8	676	53	0
8	676	53.1	0
8	676	53.2	0
8	676	53.3	0
8	676	53.4	0
8	676	53.5	0
8	676	53.6	0
8	676	53.7	0
8	676	53.8	0
8	676	53.9	0
8	676	54	0
8	676	54.1	0
8	676	54.2	0
8	676	54.3	0
8	676	54.4	0
8	676	54.5	0
8	676	54.6	0
8	676	54.7	0
8	676	54.8	0
8	676	54.9	0
8	676	55	0
8	676	55.1	0
8	676	55.2	0
8	676	55.3	0
8	676	55.4	0
8	676	55.5	0
8	676	55.6	0
8	676	55.7	0
8	676	55.8	0
8	676	55.9	0
8	676	56	0
8	676	56.1	0
8	676	56.2	0
8	676	56.3	0
8	676	56.4	0
8	676	56.5	0
8	676	56.6	0
8	676	56.7	0
8	676	56.8	0
8	676	56.9	0
8	676	57	0
8	676	57.1	0
8	676	57.2	0
4	2	0.1	0
4	2	0.1	0
4	2	0.1	0
4	2	0.1	0
4	2	0.1	0
4	217	20	1
4	225	20	2
4	229	20	1
4	229	20	0
5	2	0.1	0
5	2	0.1	0
5	2	0.1	0
5	2	0.1	0
5	2	0.1	0
5	217	20	1264
5	225	20	2528
5	229	20	1264
5	229	20	0
15	234	20.000152	0.000152
15	291	20.000637365896	0.000637365896
16	2	0.1	0
16	2	0.1	0
16	229	20	1
16	229	20	2
16	234	20.000152	1
16	291	20.000637365896	0
18	2	0.1	0
18	2	0.1	0
18	217	20	1
18	228	20	0
18	235	20.000152	1
18	255	20.000236365896	0
18	259	20.000388365896	1
18	279	20.000485365896	0
17	217	20	3
17	234	20.000152	5
19	2	0.1	0
19	2	0.1	0
19	217	20	0
19	217	20	2
19	228	20	2
19	228	20	0
19	230	20	0
19	230	20	0
19	234	20.000152	0
19	234	20.000152	1
19	235	20.000152	1
19	235	20.000152	2
19	255	20.000236365896	2
19	255	20.000236365896	1
19	259	20.000388365896	1
19	259	20.000388365896	2
19	279	20.000485365896	2
19	279	20.000485365896	0
19	281	20.000485365896	0
19	281	20.000485365896	0
19	292	20.000637365896	0
19	292	20.000637365896	0
21	2	0.1	15
39	229	20	12000000
39	280	20.000485365896	12000000
38	2	0.1	0
38	2	0.1	0
38	229	20	1
38	234	20.000152	0
38	280	20.000485365896	1
38	291	20.000637365896	0
28	260	20.000388365896	158
30	260	20.000388365896	158
33	260	20.000388365896	158
22	234	20.000152	158
22	291	20.000637365896	158
24	234	20.000152	158
24	291	20.000637365896	158
27	234	20.000152	158
27	291	20.000637365896	158
44	260	20.000388365896	158
42	229	20	158
42	280	20.000485365896	158
43	217	20	130
43	225	20	130
41	260	20.000388365896	130
55	2	0.1	3
52	2	0.1	0
52	2	0.1	0
52	2	0.1	2
52	230	20	3
52	235	20.000152	2
52	281	20.000485365896	3
52	292	20.000637365896	2
53	2	0.1	1
53	230	20	0
53	235	20.000152	1
53	255	20.000236365896	3
53	259	20.000388365896	1
53	281	20.000485365896	0
53	292	20.000637365896	1
54	230	20	1
54	231	20	2
54	234	20.000152	1
54	235	20.000152	0
54	281	20.000485365896	1
54	282	20.000485365896	2
54	291	20.000637365896	1
54	292	20.000637365896	0
71	219	20	100
71	227	20	100
71	264	20.000388365896	100
72	219	0.2	0
72	219	0.3	0
72	219	0.4	0
72	219	0.5	0
72	219	0.6	0
72	219	0.7	0
72	219	0.8	0
72	219	0.9	0
72	219	1	0
72	219	1.1	0
72	219	1.2	0
72	219	1.3	0
72	219	1.4	0
72	219	1.5	0
72	219	1.6	0
72	219	1.7	0
72	219	1.8	0
72	219	1.9	0
72	219	2	0
72	219	2.1	0
72	219	2.2	0
72	219	2.3	0
72	219	2.4	0
72	219	2.5	0
72	219	2.6	0
72	219	2.7	0
72	219	2.8	0
72	219	2.9	0
72	219	3	0
72	219	3.1	0
72	219	3.2	0
72	219	3.3	0
72	219	3.4	0
72	219	3.5	0
72	219	3.6	0
72	219	3.7	0
72	219	3.8	0
72	219	3.9	0
72	219	4	0
72	219	4.1	0
72	219	4.2	0
72	219	4.3	0
72	219	4.4	0
72	219	4.5	0
72	219	4.6	0
72	219	4.7	0
72	219	4.8	0
72	219	4.9	0
72	219	5	0
72	219	5.1	0
72	219	5.2	0
72	219	5.3	0
72	219	5.4	0
72	219	5.5	0
72	219	5.6	0
72	219	5.7	0
72	219	5.8	0
72	219	5.9	0
72	219	6	0
72	219	6.1	0
72	219	6.2	0
72	219	6.3	0
72	219	6.4	0
72	219	6.5	0
72	219	6.6	0
72	219	6.7	0
72	219	6.8	0
72	219	6.9	0
72	219	7	0
72	219	7.1	0
72	219	7.2	0
72	219	7.3	0
72	219	7.4	0
72	219	7.5	0
72	219	7.6	0
72	219	7.7	0
72	219	7.8	0
72	219	7.9	0
72	219	8	0
72	219	8.1	0
72	219	8.2	0
72	219	8.3	0
72	219	8.4	0
72	219	8.5	0
72	219	8.6	0
72	219	8.7	0
72	219	8.8	0
72	219	8.9	0
72	219	9	0
72	219	9.1	0
72	219	9.2	0
72	219	9.3	0
72	219	9.4	0
72	219	9.5	0
72	219	9.6	0
72	219	9.7	0
72	219	9.8	0
72	219	9.9	0
72	219	10	0
72	219	10.1	0
72	219	10.2	0
72	219	10.3	0
72	219	10.4	0
72	219	10.5	0
72	219	10.6	0
72	219	10.7	0
72	219	10.8	0
72	219	10.9	0
72	219	11	0
72	219	11.1	0
72	219	11.2	0
72	219	11.3	0
72	219	11.4	0
72	219	11.5	0
72	219	11.6	0
72	219	11.7	0
72	219	11.8	0
72	219	11.9	0
72	219	12	0
72	219	12.1	0
72	219	12.2	0
72	219	12.3	0
72	219	12.4	0
72	219	12.5	0
72	219	12.6	0
72	219	12.7	0
72	219	12.8	0
72	219	12.9	0
72	219	13	0
72	219	13.1	0
72	219	13.2	0
72	219	13.3	0
72	219	13.4	0
72	219	13.5	0
72	219	13.6	0
72	219	13.7	0
72	219	13.8	0
72	219	13.9	0
72	219	14	0
72	219	14.1	0
72	219	14.2	0
72	219	14.3	0
72	219	14.4	0
72	219	14.5	0
72	219	14.6	0
72	219	14.7	0
72	219	14.8	0
72	219	14.9	0
72	219	15	0
72	219	15.1	0
72	219	15.2	0
72	219	15.3	0
72	219	15.4	0
72	219	15.5	0
72	219	15.6	0
72	219	15.7	0
72	219	15.8	0
72	219	15.9	0
72	219	16	0
72	219	16.1	0
72	219	16.2	0
72	219	16.3	0
72	219	16.4	0
72	219	16.5	0
72	219	16.6	0
72	219	16.7	0
72	219	16.8	0
72	219	16.9	0
72	219	17	0
72	219	17.1	0
72	219	17.2	0
72	219	17.3	0
72	219	17.4	0
72	219	17.5	0
72	219	17.6	0
72	219	17.7	0
72	219	17.8	0
72	219	17.9	0
72	219	18	0
72	219	18.1	0
72	219	18.2	0
72	219	18.3	0
72	219	18.4	0
72	219	18.5	0
72	219	18.6	0
72	219	18.7	0
72	219	18.8	0
72	219	18.9	0
72	219	19	0
72	219	19.1	0
72	219	19.2	0
72	219	19.3	0
72	219	19.4	0
72	219	19.5	0
72	219	19.6	0
72	219	19.7	0
72	219	19.8	0
72	219	19.9	0
72	219	20	0
72	676	20.1	24000
72	676	20.2	0
72	676	20.3	0
72	676	20.4	0
72	676	20.5	0
72	676	20.6	0
72	676	20.7	0
72	676	20.8	0
72	676	20.9	0
72	676	21	0
72	676	21.1	0
72	676	21.2	0
72	676	21.3	0
72	676	21.4	0
72	676	21.5	0
72	676	21.6	0
72	676	21.7	0
72	676	21.8	0
72	676	21.9	0
72	676	22	0
72	676	22.1	0
72	676	22.2	0
72	676	22.3	0
72	676	22.4	0
72	676	22.5	0
72	676	22.6	0
72	676	22.7	0
72	676	22.8	0
72	676	22.9	0
72	676	23	0
72	676	23.1	0
72	676	23.2	0
72	676	23.3	0
72	676	23.4	0
72	676	23.5	0
72	676	23.6	0
72	676	23.7	0
72	676	23.8	0
72	676	23.9	0
72	676	24	0
72	676	24.1	0
72	676	24.2	0
72	676	24.3	0
72	676	24.4	0
72	676	24.5	0
72	676	24.6	0
72	676	24.7	0
72	676	24.8	0
72	676	24.9	0
72	676	25	0
72	676	25.1	0
72	676	25.2	0
72	676	25.3	0
72	676	25.4	0
72	676	25.5	0
72	676	25.6	0
72	676	25.7	0
72	676	25.8	0
72	676	25.9	0
72	676	26	0
72	676	26.1	0
72	676	26.2	0
72	676	26.3	0
72	676	26.4	0
72	676	26.5	0
72	676	26.6	0
72	676	26.7	0
72	676	26.8	0
72	676	26.9	0
72	676	27	0
72	676	27.1	0
72	676	27.2	0
72	676	27.3	0
72	676	27.4	0
72	676	27.5	0
72	676	27.6	0
72	676	27.7	0
72	676	27.8	0
72	676	27.9	0
72	676	28	0
72	676	28.1	0
72	676	28.2	0
72	676	28.3	0
72	676	28.4	0
72	676	28.5	0
72	676	28.6	0
72	676	28.7	0
72	676	28.8	0
72	676	28.9	0
72	676	29	0
72	676	29.1	0
72	676	29.2	0
72	676	29.3	0
72	676	29.4	0
72	676	29.5	0
72	676	29.6	0
72	676	29.7	0
72	676	29.8	0
72	676	29.9	0
72	676	30	0
72	676	30.1	0
72	676	30.2	0
72	676	30.3	0
72	676	30.4	0
72	676	30.5	0
72	676	30.6	0
72	676	30.7	0
72	676	30.8	0
72	676	30.9	0
72	676	31	0
72	676	31.1	0
72	676	31.2	0
72	676	31.3	0
72	676	31.4	0
72	676	31.5	0
72	676	31.6	0
72	676	31.7	0
72	676	31.8	0
72	676	31.9	0
72	676	32	0
72	676	32.1	0
72	676	32.2	0
72	676	32.3	0
72	676	32.4	0
72	676	32.5	0
72	676	32.6	0
72	676	32.7	0
72	676	32.8	0
72	676	32.9	0
72	676	33	0
72	676	33.1	0
72	676	33.2	0
72	676	33.3	0
72	676	33.4	0
72	676	33.5	0
72	676	33.6	0
72	676	33.7	0
72	676	33.8	0
72	676	33.9	0
72	676	34	0
72	676	34.1	0
72	676	34.2	0
72	676	34.3	0
72	676	34.4	0
72	676	34.5	0
72	676	34.6	0
72	676	34.7	0
72	676	34.8	0
72	676	34.9	0
72	676	35	0
72	676	35.1	0
72	676	35.2	0
72	676	35.3	0
72	676	35.4	0
72	676	35.5	0
72	676	35.6	0
72	676	35.7	0
72	676	35.8	0
72	676	35.9	0
72	676	36	0
72	676	36.1	0
72	676	36.2	0
72	676	36.3	0
72	676	36.4	0
72	676	36.5	0
72	676	36.6	0
72	676	36.7	0
72	676	36.8	0
72	676	36.9	0
72	676	37	0
72	676	37.1	0
72	676	37.2	0
72	676	37.3	0
72	676	37.4	0
72	676	37.5	0
72	676	37.6	0
72	676	37.7	0
72	676	37.8	0
72	676	37.9	0
72	676	38	0
72	676	38.1	0
72	676	38.2	0
72	676	38.3	0
72	676	38.4	0
72	676	38.5	0
72	676	38.6	0
72	676	38.7	0
72	676	38.8	0
72	676	38.9	0
72	676	39	0
72	676	39.1	0
72	676	39.2	0
72	676	39.3	0
72	676	39.4	0
72	676	39.5	0
72	676	39.6	0
72	676	39.7	0
72	676	39.8	0
72	676	39.9	0
72	676	40	0
72	676	40.1	0
72	676	40.2	0
72	676	40.3	0
72	676	40.4	0
72	676	40.5	0
72	676	40.6	0
72	676	40.7	0
72	676	40.8	0
72	676	40.9	0
72	676	41	0
72	676	41.1	0
72	676	41.2	0
72	676	41.3	0
72	676	41.4	0
72	676	41.5	0
72	676	41.6	0
72	676	41.7	0
72	676	41.8	0
72	676	41.9	0
72	676	42	0
72	676	42.1	0
72	676	42.2	0
72	676	42.3	0
72	676	42.4	0
72	676	42.5	0
72	676	42.6	0
72	676	42.7	0
72	676	42.8	0
72	676	42.9	0
72	676	43	0
72	676	43.1	0
72	676	43.2	0
72	676	43.3	0
72	676	43.4	0
72	676	43.5	0
72	676	43.6	0
72	676	43.7	0
72	676	43.8	0
72	676	43.9	0
72	676	44	0
72	676	44.1	0
72	676	44.2	0
72	676	44.3	0
72	676	44.4	0
72	676	44.5	0
72	676	44.6	0
72	676	44.7	0
72	676	44.8	0
72	676	44.9	0
72	676	45	0
72	676	45.1	0
72	676	45.2	0
72	676	45.3	0
72	676	45.4	0
72	676	45.5	0
72	676	45.6	0
72	676	45.7	0
72	676	45.8	0
72	676	45.9	0
72	676	46	0
72	676	46.1	0
72	676	46.2	0
72	676	46.3	0
72	676	46.4	0
72	676	46.5	0
72	676	46.6	0
72	676	46.7	0
72	676	46.8	0
72	676	46.9	0
72	676	47	0
72	676	47.1	0
72	676	47.2	0
72	676	47.3	0
72	676	47.4	0
72	676	47.5	0
72	676	47.6	0
72	676	47.7	0
72	676	47.8	0
72	676	47.9	0
72	676	48	0
72	676	48.1	0
72	676	48.2	0
72	676	48.3	0
72	676	48.4	0
72	676	48.5	0
72	676	48.6	0
72	676	48.7	0
72	676	48.8	0
72	676	48.9	0
72	676	49	0
72	676	49.1	0
72	676	49.2	0
72	676	49.3	0
72	676	49.4	0
72	676	49.5	0
72	676	49.6	0
72	676	49.7	0
72	676	49.8	0
72	676	49.9	0
72	676	50	0
72	676	50.1	0
72	676	50.2	0
72	676	50.3	0
72	676	50.4	0
72	676	50.5	0
72	676	50.6	0
72	676	50.7	0
72	676	50.8	0
72	676	50.9	0
72	676	51	0
72	676	51.1	0
72	676	51.2	0
72	676	51.3	0
72	676	51.4	0
72	676	51.5	0
72	676	51.6	0
72	676	51.7	0
72	676	51.8	0
72	676	51.9	0
72	676	52	0
72	676	52.1	0
72	676	52.2	0
72	676	52.3	0
72	676	52.4	0
72	676	52.5	0
72	676	52.6	0
72	676	52.7	0
72	676	52.8	0
72	676	52.9	0
72	676	53	0
72	676	53.1	0
72	676	53.2	0
72	676	53.3	0
72	676	53.4	0
72	676	53.5	0
72	676	53.6	0
72	676	53.7	0
72	676	53.8	0
72	676	53.9	0
72	676	54	0
72	676	54.1	0
72	676	54.2	0
72	676	54.3	0
72	676	54.4	0
72	676	54.5	0
72	676	54.6	0
72	676	54.7	0
72	676	54.8	0
72	676	54.9	0
72	676	55	0
72	676	55.1	0
72	676	55.2	0
72	676	55.3	0
72	676	55.4	0
72	676	55.5	0
72	676	55.6	0
72	676	55.7	0
72	676	55.8	0
72	676	55.9	0
72	676	56	0
72	676	56.1	0
72	676	56.2	0
72	676	56.3	0
72	676	56.4	0
72	676	56.5	0
72	676	56.6	0
72	676	56.7	0
72	676	56.8	0
72	676	56.9	0
72	676	57	0
72	676	57.1	0
72	676	57.2	0
74	219	20	0
74	227	20	0
74	264	20.000388365896	0.000388365896
73	210	20	100
73	219	20	100

